4-[(2-Oxo-2-phenylethyl)amino]benzoic acid
  Mrv2401 10272421072D          

 19 20  0  0  0  0            999 V2000
    2.5424   -2.3919    0.0000 C   0  0  0  0  0  0  0  0  0  0  0  0
    2.4276   -1.5749    0.0000 C   0  0  0  0  0  0  0  0  0  0  0  0
    1.6626   -1.2659    0.0000 O   0  0  0  0  0  0  0  0  0  0  0  0
    3.0777   -1.0670    0.0000 O   0  0  0  0  0  0  0  0  0  0  0  0
    3.3073   -2.7009    0.0000 C   0  0  0  0  0  0  0  0  0  0  0  0
    3.4221   -3.5179    0.0000 C   0  0  0  0  0  0  0  0  0  0  0  0
    2.7720   -4.0258    0.0000 C   0  0  0  0  0  0  0  0  0  0  0  0
    2.0071   -3.7168    0.0000 C   0  0  0  0  0  0  0  0  0  0  0  0
    1.8923   -2.8998    0.0000 C   0  0  0  0  0  0  0  0  0  0  0  0
    2.8868   -4.8428    0.0000 N   0  0  0  0  0  0  0  0  0  0  0  0
    2.2367   -5.3507    0.0000 C   0  0  0  0  0  0  0  0  0  0  0  0
    2.3515   -6.1677    0.0000 C   0  0  0  0  0  0  0  0  0  0  0  0
    1.7014   -6.6756    0.0000 C   0  0  0  0  0  0  0  0  0  0  0  0
    1.8162   -7.4926    0.0000 C   0  0  0  0  0  0  0  0  0  0  0  0
    1.1661   -8.0005    0.0000 C   0  0  0  0  0  0  0  0  0  0  0  0
    0.4012   -7.6915    0.0000 C   0  0  0  0  0  0  0  0  0  0  0  0
    0.2864   -6.8745    0.0000 C   0  0  0  0  0  0  0  0  0  0  0  0
    0.9365   -6.3666    0.0000 C   0  0  0  0  0  0  0  0  0  0  0  0
    3.1165   -6.4767    0.0000 O   0  0  0  0  0  0  0  0  0  0  0  0
  1  2  1  0  0  0  0
  2  3  1  0  0  0  0
  2  4  2  0  0  0  0
  1  5  2  0  0  0  0
  5  6  1  0  0  0  0
  6  7  2  0  0  0  0
  7  8  1  0  0  0  0
  8  9  2  0  0  0  0
  1  9  1  0  0  0  0
 11 12  1  0  0  0  0
 13 14  2  0  0  0  0
 14 15  1  0  0  0  0
 15 16  2  0  0  0  0
 16 17  1  0  0  0  0
 17 18  2  0  0  0  0
 13 18  1  0  0  0  0
 12 13  1  0  0  0  0
 12 19  2  0  0  0  0
 10 11  1  0  0  0  0
  7 10  1  0  0  0  0
M  END
>  <type>
systematic

$$$$
2-[(2-Oxo-2-phenylethyl)amino]benzoic acid
  Mrv2401 10272421122D          

 19 20  0  0  0  0            999 V2000
    2.8579   -2.4750    0.0000 C   0  0  0  0  0  0  0  0  0  0  0  0
    2.8579   -1.6500    0.0000 C   0  0  0  0  0  0  0  0  0  0  0  0
    2.1434   -1.2375    0.0000 O   0  0  0  0  0  0  0  0  0  0  0  0
    3.5724   -1.2375    0.0000 O   0  0  0  0  0  0  0  0  0  0  0  0
    3.5724   -2.8875    0.0000 C   0  0  0  0  0  0  0  0  0  0  0  0
    3.5724   -3.7125    0.0000 C   0  0  0  0  0  0  0  0  0  0  0  0
    2.8579   -4.1250    0.0000 C   0  0  0  0  0  0  0  0  0  0  0  0
    2.1434   -3.7125    0.0000 C   0  0  0  0  0  0  0  0  0  0  0  0
    2.1434   -2.8875    0.0000 C   0  0  0  0  0  0  0  0  0  0  0  0
    4.2868   -2.4750    0.0000 N   0  0  0  0  0  0  0  0  0  0  0  0
    5.0013   -2.8875    0.0000 C   0  0  0  0  0  0  0  0  0  0  0  0
    5.7158   -2.4750    0.0000 C   0  0  0  0  0  0  0  0  0  0  0  0
    6.4302   -2.8875    0.0000 C   0  0  0  0  0  0  0  0  0  0  0  0
    7.1447   -2.4750    0.0000 C   0  0  0  0  0  0  0  0  0  0  0  0
    7.8592   -2.8875    0.0000 C   0  0  0  0  0  0  0  0  0  0  0  0
    7.8592   -3.7125    0.0000 C   0  0  0  0  0  0  0  0  0  0  0  0
    7.1447   -4.1250    0.0000 C   0  0  0  0  0  0  0  0  0  0  0  0
    6.4302   -3.7125    0.0000 C   0  0  0  0  0  0  0  0  0  0  0  0
    5.7158   -1.6500    0.0000 O   0  0  0  0  0  0  0  0  0  0  0  0
  1  2  1  0  0  0  0
  2  3  1  0  0  0  0
  2  4  2  0  0  0  0
  1  5  2  0  0  0  0
  5  6  1  0  0  0  0
  6  7  2  0  0  0  0
  7  8  1  0  0  0  0
  8  9  2  0  0  0  0
  1  9  1  0  0  0  0
 11 12  1  0  0  0  0
 13 14  2  0  0  0  0
 14 15  1  0  0  0  0
 15 16  2  0  0  0  0
 16 17  1  0  0  0  0
 17 18  2  0  0  0  0
 13 18  1  0  0  0  0
 12 13  1  0  0  0  0
 12 19  2  0  0  0  0
 10 11  1  0  0  0  0
  5 10  1  0  0  0  0
M  END
>  <type>
systematic

$$$$
4-[[2-Oxo-2-(4-propylphenyl)ethyl]amino]benzoic acid
  Mrv2401 10272421132D          

 22 23  0  0  0  0            999 V2000
    2.8579   -2.4750    0.0000 C   0  0  0  0  0  0  0  0  0  0  0  0
    2.8579   -1.6500    0.0000 C   0  0  0  0  0  0  0  0  0  0  0  0
    2.1434   -1.2375    0.0000 O   0  0  0  0  0  0  0  0  0  0  0  0
    3.5724   -1.2375    0.0000 O   0  0  0  0  0  0  0  0  0  0  0  0
    3.5724   -2.8875    0.0000 C   0  0  0  0  0  0  0  0  0  0  0  0
    3.5724   -3.7125    0.0000 C   0  0  0  0  0  0  0  0  0  0  0  0
    2.8579   -4.1250    0.0000 C   0  0  0  0  0  0  0  0  0  0  0  0
    2.1434   -3.7125    0.0000 C   0  0  0  0  0  0  0  0  0  0  0  0
    2.1434   -2.8875    0.0000 C   0  0  0  0  0  0  0  0  0  0  0  0
    2.8579   -4.9500    0.0000 N   0  0  0  0  0  0  0  0  0  0  0  0
    2.1434   -5.3625    0.0000 C   0  0  0  0  0  0  0  0  0  0  0  0
    2.1434   -6.1875    0.0000 C   0  0  0  0  0  0  0  0  0  0  0  0
    1.4289   -6.6000    0.0000 C   0  0  0  0  0  0  0  0  0  0  0  0
    1.4289   -7.4250    0.0000 C   0  0  0  0  0  0  0  0  0  0  0  0
    0.7145   -7.8375    0.0000 C   0  0  0  0  0  0  0  0  0  0  0  0
    0.0000   -7.4250    0.0000 C   0  0  0  0  0  0  0  0  0  0  0  0
    0.0000   -6.6000    0.0000 C   0  0  0  0  0  0  0  0  0  0  0  0
    0.7145   -6.1875    0.0000 C   0  0  0  0  0  0  0  0  0  0  0  0
   -0.7145   -7.8375    0.0000 C   0  0  0  0  0  0  0  0  0  0  0  0
   -1.4289   -7.4250    0.0000 C   0  0  0  0  0  0  0  0  0  0  0  0
   -2.1434   -7.8375    0.0000 C   0  0  0  0  0  0  0  0  0  0  0  0
    2.8579   -6.6000    0.0000 O   0  0  0  0  0  0  0  0  0  0  0  0
  1  2  1  0  0  0  0
  2  3  1  0  0  0  0
  2  4  2  0  0  0  0
  1  5  2  0  0  0  0
  5  6  1  0  0  0  0
  6  7  2  0  0  0  0
  7  8  1  0  0  0  0
  8  9  2  0  0  0  0
  1  9  1  0  0  0  0
 11 12  1  0  0  0  0
 13 14  2  0  0  0  0
 14 15  1  0  0  0  0
 15 16  2  0  0  0  0
 16 17  1  0  0  0  0
 17 18  2  0  0  0  0
 13 18  1  0  0  0  0
 19 20  1  0  0  0  0
 20 21  1  0  0  0  0
 16 19  1  0  0  0  0
 12 13  1  0  0  0  0
 12 22  2  0  0  0  0
 10 11  1  0  0  0  0
  7 10  1  0  0  0  0
M  END
>  <type>
systematic

$$$$
4-[(1-Methoxy-2-oxo-2-phenylethyl) amino]benzoic acid
  Mrv2401 10272421142D          

 21 22  0  0  0  0            999 V2000
    2.8579   -2.4750    0.0000 C   0  0  0  0  0  0  0  0  0  0  0  0
    2.8579   -1.6500    0.0000 C   0  0  0  0  0  0  0  0  0  0  0  0
    2.1434   -1.2375    0.0000 O   0  0  0  0  0  0  0  0  0  0  0  0
    3.5724   -1.2375    0.0000 O   0  0  0  0  0  0  0  0  0  0  0  0
    3.5724   -2.8875    0.0000 C   0  0  0  0  0  0  0  0  0  0  0  0
    3.5724   -3.7125    0.0000 C   0  0  0  0  0  0  0  0  0  0  0  0
    2.8579   -4.1250    0.0000 C   0  0  0  0  0  0  0  0  0  0  0  0
    2.1434   -3.7125    0.0000 C   0  0  0  0  0  0  0  0  0  0  0  0
    2.1434   -2.8875    0.0000 C   0  0  0  0  0  0  0  0  0  0  0  0
    2.8579   -4.9500    0.0000 N   0  0  0  0  0  0  0  0  0  0  0  0
    2.1434   -5.3625    0.0000 C   0  0  0  0  0  0  0  0  0  0  0  0
    2.1434   -6.1875    0.0000 C   0  0  0  0  0  0  0  0  0  0  0  0
    1.4289   -6.6000    0.0000 C   0  0  0  0  0  0  0  0  0  0  0  0
    1.4289   -7.4250    0.0000 C   0  0  0  0  0  0  0  0  0  0  0  0
    0.7145   -7.8375    0.0000 C   0  0  0  0  0  0  0  0  0  0  0  0
    0.0000   -7.4250    0.0000 C   0  0  0  0  0  0  0  0  0  0  0  0
    0.0000   -6.6000    0.0000 C   0  0  0  0  0  0  0  0  0  0  0  0
    0.7145   -6.1875    0.0000 C   0  0  0  0  0  0  0  0  0  0  0  0
    2.8579   -6.6000    0.0000 O   0  0  0  0  0  0  0  0  0  0  0  0
    1.4289   -4.9500    0.0000 O   0  0  0  0  0  0  0  0  0  0  0  0
    1.4289   -4.1250    0.0000 C   0  0  0  0  0  0  0  0  0  0  0  0
  1  2  1  0  0  0  0
  2  3  1  0  0  0  0
  2  4  2  0  0  0  0
  1  5  2  0  0  0  0
  5  6  1  0  0  0  0
  6  7  2  0  0  0  0
  7  8  1  0  0  0  0
  8  9  2  0  0  0  0
  1  9  1  0  0  0  0
 11 12  1  0  0  0  0
 13 14  2  0  0  0  0
 14 15  1  0  0  0  0
 15 16  2  0  0  0  0
 16 17  1  0  0  0  0
 17 18  2  0  0  0  0
 13 18  1  0  0  0  0
 12 13  1  0  0  0  0
 12 19  2  0  0  0  0
 20 21  1  0  0  0  0
 11 20  1  0  0  0  0
 10 11  1  0  0  0  0
  7 10  1  0  0  0  0
M  END
>  <type>
systematic

$$$$
2-[[2-(4-Cyanophenyl)-2-oxoethyl]amino]benzoic acid
  Mrv2401 11012418362D          

 21 22  0  0  0  0            999 V2000
    2.8579   -2.4750    0.0000 C   0  0  0  0  0  0  0  0  0  0  0  0
    2.8579   -1.6500    0.0000 C   0  0  0  0  0  0  0  0  0  0  0  0
    2.1434   -1.2375    0.0000 O   0  0  0  0  0  0  0  0  0  0  0  0
    3.5724   -1.2375    0.0000 O   0  0  0  0  0  0  0  0  0  0  0  0
    3.5724   -2.8875    0.0000 C   0  0  0  0  0  0  0  0  0  0  0  0
    3.5724   -3.7125    0.0000 C   0  0  0  0  0  0  0  0  0  0  0  0
    2.8579   -4.1250    0.0000 C   0  0  0  0  0  0  0  0  0  0  0  0
    2.1434   -3.7125    0.0000 C   0  0  0  0  0  0  0  0  0  0  0  0
    2.1434   -2.8875    0.0000 C   0  0  0  0  0  0  0  0  0  0  0  0
    4.2868   -2.4750    0.0000 N   0  0  0  0  0  0  0  0  0  0  0  0
    5.0013   -2.8875    0.0000 C   0  0  0  0  0  0  0  0  0  0  0  0
    5.7158   -2.4750    0.0000 C   0  0  0  0  0  0  0  0  0  0  0  0
    5.7158   -1.6500    0.0000 O   0  0  0  0  0  0  0  0  0  0  0  0
    6.4302   -2.8875    0.0000 C   0  0  0  0  0  0  0  0  0  0  0  0
    7.1447   -2.4750    0.0000 C   0  0  0  0  0  0  0  0  0  0  0  0
    7.8592   -2.8875    0.0000 C   0  0  0  0  0  0  0  0  0  0  0  0
    7.8592   -3.7125    0.0000 C   0  0  0  0  0  0  0  0  0  0  0  0
    7.1447   -4.1250    0.0000 C   0  0  0  0  0  0  0  0  0  0  0  0
    6.4302   -3.7125    0.0000 C   0  0  0  0  0  0  0  0  0  0  0  0
    8.5737   -4.1250    0.0000 C   0  0  0  0  0  0  0  0  0  0  0  0
    9.2881   -4.5375    0.0000 N   0  0  0  0  0  0  0  0  0  0  0  0
  1  2  1  0  0  0  0
  2  3  1  0  0  0  0
  2  4  2  0  0  0  0
  1  5  2  0  0  0  0
  5  6  1  0  0  0  0
  6  7  2  0  0  0  0
  7  8  1  0  0  0  0
  8  9  2  0  0  0  0
  1  9  1  0  0  0  0
 11 12  1  0  0  0  0
 12 13  2  0  0  0  0
 14 15  2  0  0  0  0
 15 16  1  0  0  0  0
 16 17  2  0  0  0  0
 17 18  1  0  0  0  0
 18 19  2  0  0  0  0
 14 19  1  0  0  0  0
 20 21  3  0  0  0  0
 17 20  1  0  0  0  0
 12 14  1  0  0  0  0
 10 11  1  0  0  0  0
  5 10  1  0  0  0  0
M  END
>  <type>
systematic

$$$$
5-Chloro-2-[(2-oxo-2-phenylacetyl)amino]benzoic acid
  Mrv2401 11012419382D          

 21 22  0  0  0  0            999 V2000
    2.8579   -2.4750    0.0000 C   0  0  0  0  0  0  0  0  0  0  0  0
    2.8579   -1.6500    0.0000 C   0  0  0  0  0  0  0  0  0  0  0  0
    2.1434   -1.2375    0.0000 O   0  0  0  0  0  0  0  0  0  0  0  0
    3.5724   -1.2375    0.0000 O   0  0  0  0  0  0  0  0  0  0  0  0
    3.5724   -2.8875    0.0000 C   0  0  0  0  0  0  0  0  0  0  0  0
    3.5724   -3.7125    0.0000 C   0  0  0  0  0  0  0  0  0  0  0  0
    2.8579   -4.1250    0.0000 C   0  0  0  0  0  0  0  0  0  0  0  0
    2.1434   -3.7125    0.0000 C   0  0  0  0  0  0  0  0  0  0  0  0
    2.1434   -2.8875    0.0000 C   0  0  0  0  0  0  0  0  0  0  0  0
    4.2868   -2.4750    0.0000 N   0  0  0  0  0  0  0  0  0  0  0  0
    5.0013   -2.8875    0.0000 C   0  0  0  0  0  0  0  0  0  0  0  0
    5.0013   -3.7125    0.0000 O   0  0  0  0  0  0  0  0  0  0  0  0
    5.7158   -2.4750    0.0000 C   0  0  0  0  0  0  0  0  0  0  0  0
    6.4302   -2.8875    0.0000 C   0  0  0  0  0  0  0  0  0  0  0  0
    7.1447   -2.4750    0.0000 C   0  0  0  0  0  0  0  0  0  0  0  0
    7.8592   -2.8875    0.0000 C   0  0  0  0  0  0  0  0  0  0  0  0
    7.8592   -3.7125    0.0000 C   0  0  0  0  0  0  0  0  0  0  0  0
    7.1447   -4.1250    0.0000 C   0  0  0  0  0  0  0  0  0  0  0  0
    6.4302   -3.7125    0.0000 C   0  0  0  0  0  0  0  0  0  0  0  0
    5.7158   -1.6500    0.0000 O   0  0  0  0  0  0  0  0  0  0  0  0
    1.4289   -4.1250    0.0000 Cl  0  0  0  0  0  0  0  0  0  0  0  0
  1  2  1  0  0  0  0
  2  3  1  0  0  0  0
  2  4  2  0  0  0  0
  1  5  2  0  0  0  0
  5  6  1  0  0  0  0
  6  7  2  0  0  0  0
  7  8  1  0  0  0  0
  8  9  2  0  0  0  0
  1  9  1  0  0  0  0
 11 12  2  0  0  0  0
 11 13  1  0  0  0  0
 14 15  2  0  0  0  0
 15 16  1  0  0  0  0
 16 17  2  0  0  0  0
 17 18  1  0  0  0  0
 18 19  2  0  0  0  0
 14 19  1  0  0  0  0
 13 14  1  0  0  0  0
 13 20  2  0  0  0  0
 10 11  1  0  0  0  0
  5 10  1  0  0  0  0
  8 21  1  0  0  0  0
M  END
>  <type>
systematic

$$$$
4-[[2-[4-(Cyclohexylmethoxy)phenyl]-1-hydroxy-2-oxoethyl]amino]benzoic acid
  Mrv2401 11012419392D          

 28 30  0  0  0  0            999 V2000
    3.5724   -6.1875    0.0000 C   0  0  0  0  0  0  0  0  0  0  0  0
    3.5724   -5.3625    0.0000 C   0  0  0  0  0  0  0  0  0  0  0  0
    2.8579   -4.9500    0.0000 O   0  0  0  0  0  0  0  0  0  0  0  0
    4.2868   -4.9500    0.0000 O   0  0  0  0  0  0  0  0  0  0  0  0
    4.2868   -6.6000    0.0000 C   0  0  0  0  0  0  0  0  0  0  0  0
    4.2868   -7.4250    0.0000 C   0  0  0  0  0  0  0  0  0  0  0  0
    3.5724   -7.8375    0.0000 C   0  0  0  0  0  0  0  0  0  0  0  0
    2.8579   -7.4250    0.0000 C   0  0  0  0  0  0  0  0  0  0  0  0
    2.8579   -6.6000    0.0000 C   0  0  0  0  0  0  0  0  0  0  0  0
    3.5724   -8.6625    0.0000 N   0  0  0  0  0  0  0  0  0  0  0  0
    2.8579   -9.0750    0.0000 C   0  0  0  0  0  0  0  0  0  0  0  0
    2.8579   -9.9000    0.0000 C   0  0  0  0  0  0  0  0  0  0  0  0
    3.5724  -10.3125    0.0000 O   0  0  0  0  0  0  0  0  0  0  0  0
    2.1434   -8.6625    0.0000 O   0  0  0  0  0  0  0  0  0  0  0  0
    2.1434  -10.3125    0.0000 C   0  0  0  0  0  0  0  0  0  0  0  0
    2.1434  -11.1375    0.0000 C   0  0  0  0  0  0  0  0  0  0  0  0
    1.4289  -11.5500    0.0000 C   0  0  0  0  0  0  0  0  0  0  0  0
    0.7145  -11.1375    0.0000 C   0  0  0  0  0  0  0  0  0  0  0  0
    0.7145  -10.3125    0.0000 C   0  0  0  0  0  0  0  0  0  0  0  0
    1.4289   -9.9000    0.0000 C   0  0  0  0  0  0  0  0  0  0  0  0
    0.0000  -11.5500    0.0000 O   0  0  0  0  0  0  0  0  0  0  0  0
    0.0000  -12.3750    0.0000 C   0  0  0  0  0  0  0  0  0  0  0  0
   -0.7145  -12.7875    0.0000 C   0  0  0  0  0  0  0  0  0  0  0  0
   -0.7145  -13.6125    0.0000 C   0  0  0  0  0  0  0  0  0  0  0  0
   -1.4289  -14.0250    0.0000 C   0  0  0  0  0  0  0  0  0  0  0  0
   -2.1434  -13.6125    0.0000 C   0  0  0  0  0  0  0  0  0  0  0  0
   -2.1434  -12.7875    0.0000 C   0  0  0  0  0  0  0  0  0  0  0  0
   -1.4289  -12.3750    0.0000 C   0  0  0  0  0  0  0  0  0  0  0  0
  1  2  1  0  0  0  0
  2  3  1  0  0  0  0
  2  4  2  0  0  0  0
  1  5  2  0  0  0  0
  5  6  1  0  0  0  0
  6  7  2  0  0  0  0
  7  8  1  0  0  0  0
  8  9  2  0  0  0  0
  1  9  1  0  0  0  0
 11 12  1  0  0  0  0
 12 13  2  0  0  0  0
 11 14  1  0  0  0  0
 15 16  2  0  0  0  0
 16 17  1  0  0  0  0
 17 18  2  0  0  0  0
 18 19  1  0  0  0  0
 19 20  2  0  0  0  0
 15 20  1  0  0  0  0
 23 24  1  0  0  0  0
 24 25  1  0  0  0  0
 25 26  1  0  0  0  0
 26 27  1  0  0  0  0
 27 28  1  0  0  0  0
 23 28  1  0  0  0  0
 22 23  1  0  0  0  0
 21 22  1  0  0  0  0
 18 21  1  0  0  0  0
 12 15  1  0  0  0  0
 10 11  1  0  0  0  0
  7 10  1  0  0  0  0
M  END
>  <type>
systematic

$$$$
4-[[2-[2-(Acetylamino)phenyl]-2-oxoacetyl]amino]benzoic acid
  Mrv2401 11012419402D          

 24 25  0  0  0  0            999 V2000
    2.8579   -2.4750    0.0000 C   0  0  0  0  0  0  0  0  0  0  0  0
    2.8579   -1.6500    0.0000 C   0  0  0  0  0  0  0  0  0  0  0  0
    2.1434   -1.2375    0.0000 O   0  0  0  0  0  0  0  0  0  0  0  0
    3.5724   -1.2375    0.0000 O   0  0  0  0  0  0  0  0  0  0  0  0
    3.5724   -2.8875    0.0000 C   0  0  0  0  0  0  0  0  0  0  0  0
    3.5724   -3.7125    0.0000 C   0  0  0  0  0  0  0  0  0  0  0  0
    2.8579   -4.1250    0.0000 C   0  0  0  0  0  0  0  0  0  0  0  0
    2.1434   -3.7125    0.0000 C   0  0  0  0  0  0  0  0  0  0  0  0
    2.1434   -2.8875    0.0000 C   0  0  0  0  0  0  0  0  0  0  0  0
    2.8579   -4.9500    0.0000 N   0  0  0  0  0  0  0  0  0  0  0  0
    2.1434   -5.3625    0.0000 C   0  0  0  0  0  0  0  0  0  0  0  0
    1.4289   -4.9500    0.0000 O   0  0  0  0  0  0  0  0  0  0  0  0
    2.1434   -6.1875    0.0000 C   0  0  0  0  0  0  0  0  0  0  0  0
    2.8579   -6.6000    0.0000 O   0  0  0  0  0  0  0  0  0  0  0  0
    1.4289   -6.6000    0.0000 C   0  0  0  0  0  0  0  0  0  0  0  0
    1.4289   -7.4250    0.0000 C   0  0  0  0  0  0  0  0  0  0  0  0
    0.7145   -7.8375    0.0000 C   0  0  0  0  0  0  0  0  0  0  0  0
    0.0000   -7.4250    0.0000 C   0  0  0  0  0  0  0  0  0  0  0  0
    0.0000   -6.6000    0.0000 C   0  0  0  0  0  0  0  0  0  0  0  0
    0.7145   -6.1875    0.0000 C   0  0  0  0  0  0  0  0  0  0  0  0
    2.1434   -7.8375    0.0000 N   0  0  0  0  0  0  0  0  0  0  0  0
    2.1434   -8.6625    0.0000 C   0  0  0  0  0  0  0  0  0  0  0  0
    2.8579   -9.0750    0.0000 O   0  0  0  0  0  0  0  0  0  0  0  0
    1.4289   -9.0750    0.0000 C   0  0  0  0  0  0  0  0  0  0  0  0
  1  2  1  0  0  0  0
  2  3  1  0  0  0  0
  2  4  2  0  0  0  0
  1  5  2  0  0  0  0
  5  6  1  0  0  0  0
  6  7  2  0  0  0  0
  7  8  1  0  0  0  0
  8  9  2  0  0  0  0
  1  9  1  0  0  0  0
 11 12  2  0  0  0  0
 11 13  1  0  0  0  0
 13 14  2  0  0  0  0
 15 16  2  0  0  0  0
 16 17  1  0  0  0  0
 17 18  2  0  0  0  0
 18 19  1  0  0  0  0
 19 20  2  0  0  0  0
 15 20  1  0  0  0  0
 22 23  2  0  0  0  0
 22 24  1  0  0  0  0
 21 22  1  0  0  0  0
 16 21  1  0  0  0  0
 13 15  1  0  0  0  0
 10 11  1  0  0  0  0
  7 10  1  0  0  0  0
M  END
>  <type>
systematic

$$$$
2-[2-(4-Methoxybenzoyl)hydrazinyl]benzoic acid
  Mrv2401 11012419412D          

 21 22  0  0  0  0            999 V2000
    2.8579   -2.4750    0.0000 C   0  0  0  0  0  0  0  0  0  0  0  0
    2.8579   -1.6500    0.0000 C   0  0  0  0  0  0  0  0  0  0  0  0
    2.1434   -1.2375    0.0000 O   0  0  0  0  0  0  0  0  0  0  0  0
    3.5724   -1.2375    0.0000 O   0  0  0  0  0  0  0  0  0  0  0  0
    3.5724   -2.8875    0.0000 C   0  0  0  0  0  0  0  0  0  0  0  0
    3.5724   -3.7125    0.0000 C   0  0  0  0  0  0  0  0  0  0  0  0
    2.8579   -4.1250    0.0000 C   0  0  0  0  0  0  0  0  0  0  0  0
    2.1434   -3.7125    0.0000 C   0  0  0  0  0  0  0  0  0  0  0  0
    2.1434   -2.8875    0.0000 C   0  0  0  0  0  0  0  0  0  0  0  0
    4.2868   -2.4750    0.0000 N   0  0  0  0  0  0  0  0  0  0  0  0
    5.0013   -2.8875    0.0000 N   0  0  0  0  0  0  0  0  0  0  0  0
    5.7158   -2.4750    0.0000 C   0  0  0  0  0  0  0  0  0  0  0  0
    5.7158   -1.6500    0.0000 O   0  0  0  0  0  0  0  0  0  0  0  0
    6.4302   -2.8875    0.0000 C   0  0  0  0  0  0  0  0  0  0  0  0
    7.1447   -2.4750    0.0000 C   0  0  0  0  0  0  0  0  0  0  0  0
    7.8592   -2.8875    0.0000 C   0  0  0  0  0  0  0  0  0  0  0  0
    7.8592   -3.7125    0.0000 C   0  0  0  0  0  0  0  0  0  0  0  0
    7.1447   -4.1250    0.0000 C   0  0  0  0  0  0  0  0  0  0  0  0
    6.4302   -3.7125    0.0000 C   0  0  0  0  0  0  0  0  0  0  0  0
    8.5737   -4.1250    0.0000 O   0  0  0  0  0  0  0  0  0  0  0  0
    9.2881   -3.7125    0.0000 C   0  0  0  0  0  0  0  0  0  0  0  0
  1  2  1  0  0  0  0
  2  3  1  0  0  0  0
  2  4  2  0  0  0  0
  1  5  2  0  0  0  0
  5  6  1  0  0  0  0
  6  7  2  0  0  0  0
  7  8  1  0  0  0  0
  8  9  2  0  0  0  0
  1  9  1  0  0  0  0
 10 11  1  0  0  0  0
 12 13  2  0  0  0  0
 12 14  1  0  0  0  0
 14 15  2  0  0  0  0
 15 16  1  0  0  0  0
 16 17  2  0  0  0  0
 17 18  1  0  0  0  0
 18 19  2  0  0  0  0
 14 19  1  0  0  0  0
 20 21  1  0  0  0  0
 17 20  1  0  0  0  0
 11 12  1  0  0  0  0
  5 10  1  0  0  0  0
M  END
>  <type>
systematic

$$$$
3-[(2-Oxo-2-tricyclo[3.3.1.13,7]dec-1-ylethyl)amino]tricyclo[3.3.1.13,7]decane-1-carboxylic acid
  Mrv2401 11012419432D          

 27 32  0  0  0  0            999 V2000
   -1.1241   -5.2644    0.0000 C   0  0  0  0  0  0  0  0  0  0  0  0
   -1.3824   -6.0479    0.0000 C   0  0  0  0  0  0  0  0  0  0  0  0
   -0.3389   -5.0110    0.0000 C   0  0  0  0  0  0  0  0  0  0  0  0
   -0.5771   -4.1336    0.0000 C   0  0  0  0  0  0  0  0  0  0  0  0
   -0.8355   -4.9172    0.0000 C   0  0  0  0  0  0  0  0  0  0  0  0
   -1.6206   -5.1705    0.0000 C   0  0  0  0  0  0  0  0  0  0  0  0
   -2.1474   -4.6403    0.0000 C   0  0  0  0  0  0  0  0  0  0  0  0
   -1.8891   -3.8568    0.0000 C   0  0  0  0  0  0  0  0  0  0  0  0
   -1.1039   -3.6034    0.0000 C   0  0  0  0  0  0  0  0  0  0  0  0
   -1.6509   -4.7343    0.0000 C   0  0  0  0  0  0  0  0  0  0  0  0
   -0.5426   -5.8496    0.0000 C   0  0  0  0  0  0  0  0  0  0  0  0
    0.2550   -5.6386    0.0000 O   0  0  0  0  0  0  0  0  0  0  0  0
   -0.7586   -6.6458    0.0000 O   0  0  0  0  0  0  0  0  0  0  0  0
    0.1373   -3.7210    0.0000 N   0  0  0  0  0  0  0  0  0  0  0  0
    0.1373   -2.8960    0.0000 C   0  0  0  0  0  0  0  0  0  0  0  0
    0.8517   -2.4835    0.0000 C   0  0  0  0  0  0  0  0  0  0  0  0
    0.8517   -1.6585    0.0000 C   0  0  0  0  0  0  0  0  0  0  0  0
    0.1163   -2.0322    0.0000 C   0  0  0  0  0  0  0  0  0  0  0  0
    1.5873   -2.0322    0.0000 C   0  0  0  0  0  0  0  0  0  0  0  0
    2.0368   -1.2419    0.0000 C   0  0  0  0  0  0  0  0  0  0  0  0
    1.3012   -1.6156    0.0000 C   0  0  0  0  0  0  0  0  0  0  0  0
    0.5657   -1.2419    0.0000 C   0  0  0  0  0  0  0  0  0  0  0  0
    0.5657   -0.4945    0.0000 C   0  0  0  0  0  0  0  0  0  0  0  0
    1.3012   -0.1208    0.0000 C   0  0  0  0  0  0  0  0  0  0  0  0
    2.0368   -0.4945    0.0000 C   0  0  0  0  0  0  0  0  0  0  0  0
    0.8517   -0.9111    0.0000 C   0  0  0  0  0  0  0  0  0  0  0  0
    1.5662   -2.8960    0.0000 O   0  0  0  0  0  0  0  0  0  0  0  0
  1  2  1  0  0  0  0
  1  3  1  0  0  0  0
  3  4  1  0  0  0  0
  4  5  1  0  0  0  0
  5  6  1  0  0  0  0
  2  6  1  0  0  0  0
  6  7  1  0  0  0  0
  7  8  1  0  0  0  0
  8  9  1  0  0  0  0
  4  9  1  0  0  0  0
  8 10  1  0  0  0  0
  1 10  1  0  0  0  0
 11 12  1  0  0  0  0
 11 13  2  0  0  0  0
  1 11  1  0  0  0  0
 15 16  1  0  0  0  0
 17 18  1  0  0  0  0
 17 19  1  0  0  0  0
 19 20  1  0  0  0  0
 20 21  1  0  0  0  0
 21 22  1  0  0  0  0
 18 22  1  0  0  0  0
 24 26  1  0  0  0  0
 23 24  1  0  0  0  0
 24 25  1  0  0  0  0
 20 25  1  0  0  0  0
 22 23  1  0  0  0  0
 17 26  1  0  0  0  0
 16 17  1  0  0  0  0
 16 27  2  0  0  0  0
 14 15  1  0  0  0  0
  4 14  1  0  0  0  0
M  END
>  <type>
systematic

$$$$
3-[[2-[2-(Acetylamino)phenyl]-2-oxoacetyl]amino]benzoic acid
  Mrv2401 11012419442D          

 24 25  0  0  0  0            999 V2000
    2.8579   -2.4750    0.0000 C   0  0  0  0  0  0  0  0  0  0  0  0
    2.8579   -1.6500    0.0000 C   0  0  0  0  0  0  0  0  0  0  0  0
    2.1434   -1.2375    0.0000 O   0  0  0  0  0  0  0  0  0  0  0  0
    3.5724   -1.2375    0.0000 O   0  0  0  0  0  0  0  0  0  0  0  0
    3.5724   -2.8875    0.0000 C   0  0  0  0  0  0  0  0  0  0  0  0
    3.5724   -3.7125    0.0000 C   0  0  0  0  0  0  0  0  0  0  0  0
    2.8579   -4.1250    0.0000 C   0  0  0  0  0  0  0  0  0  0  0  0
    2.1434   -3.7125    0.0000 C   0  0  0  0  0  0  0  0  0  0  0  0
    2.1434   -2.8875    0.0000 C   0  0  0  0  0  0  0  0  0  0  0  0
    4.2868   -4.1250    0.0000 N   0  0  0  0  0  0  0  0  0  0  0  0
    4.2868   -4.9500    0.0000 C   0  0  0  0  0  0  0  0  0  0  0  0
    3.5724   -5.3625    0.0000 O   0  0  0  0  0  0  0  0  0  0  0  0
    5.0013   -5.3625    0.0000 C   0  0  0  0  0  0  0  0  0  0  0  0
    5.7158   -4.9500    0.0000 O   0  0  0  0  0  0  0  0  0  0  0  0
    5.0013   -6.1875    0.0000 C   0  0  0  0  0  0  0  0  0  0  0  0
    5.7158   -6.6000    0.0000 C   0  0  0  0  0  0  0  0  0  0  0  0
    5.7158   -7.4250    0.0000 C   0  0  0  0  0  0  0  0  0  0  0  0
    5.0013   -7.8375    0.0000 C   0  0  0  0  0  0  0  0  0  0  0  0
    4.2868   -7.4250    0.0000 C   0  0  0  0  0  0  0  0  0  0  0  0
    4.2868   -6.6000    0.0000 C   0  0  0  0  0  0  0  0  0  0  0  0
    6.4302   -6.1875    0.0000 N   0  0  0  0  0  0  0  0  0  0  0  0
    7.1447   -6.6000    0.0000 C   0  0  0  0  0  0  0  0  0  0  0  0
    7.8592   -6.1875    0.0000 O   0  0  0  0  0  0  0  0  0  0  0  0
    7.1447   -7.4250    0.0000 C   0  0  0  0  0  0  0  0  0  0  0  0
  1  2  1  0  0  0  0
  2  3  1  0  0  0  0
  2  4  2  0  0  0  0
  1  5  2  0  0  0  0
  5  6  1  0  0  0  0
  6  7  2  0  0  0  0
  7  8  1  0  0  0  0
  8  9  2  0  0  0  0
  1  9  1  0  0  0  0
 11 12  2  0  0  0  0
 11 13  1  0  0  0  0
 13 14  2  0  0  0  0
 15 16  2  0  0  0  0
 16 17  1  0  0  0  0
 17 18  2  0  0  0  0
 18 19  1  0  0  0  0
 19 20  2  0  0  0  0
 15 20  1  0  0  0  0
 22 23  2  0  0  0  0
 22 24  1  0  0  0  0
 21 22  1  0  0  0  0
 16 21  1  0  0  0  0
 13 15  1  0  0  0  0
 10 11  1  0  0  0  0
  6 10  1  0  0  0  0
M  END
>  <type>
systematic

$$$$
2-[[2-(3-Nitrophenyl)-2-oxoacetyl]amino]benzoic acid
  Mrv2401 11012419522D          

 23 24  0  0  0  0            999 V2000
    2.8579   -2.4750    0.0000 C   0  0  0  0  0  0  0  0  0  0  0  0
    2.8579   -1.6500    0.0000 C   0  0  0  0  0  0  0  0  0  0  0  0
    2.1434   -1.2375    0.0000 O   0  0  0  0  0  0  0  0  0  0  0  0
    3.5724   -1.2375    0.0000 O   0  0  0  0  0  0  0  0  0  0  0  0
    3.5724   -2.8875    0.0000 C   0  0  0  0  0  0  0  0  0  0  0  0
    3.5724   -3.7125    0.0000 C   0  0  0  0  0  0  0  0  0  0  0  0
    2.8579   -4.1250    0.0000 C   0  0  0  0  0  0  0  0  0  0  0  0
    2.1434   -3.7125    0.0000 C   0  0  0  0  0  0  0  0  0  0  0  0
    2.1434   -2.8875    0.0000 C   0  0  0  0  0  0  0  0  0  0  0  0
    4.2868   -2.4750    0.0000 N   0  0  0  0  0  0  0  0  0  0  0  0
    5.0013   -2.8875    0.0000 C   0  0  0  0  0  0  0  0  0  0  0  0
    5.0013   -3.7125    0.0000 O   0  0  0  0  0  0  0  0  0  0  0  0
    5.7158   -2.4750    0.0000 C   0  0  0  0  0  0  0  0  0  0  0  0
    5.7158   -1.6500    0.0000 O   0  0  0  0  0  0  0  0  0  0  0  0
    6.4302   -2.8875    0.0000 C   0  0  0  0  0  0  0  0  0  0  0  0
    7.1447   -2.4750    0.0000 C   0  0  0  0  0  0  0  0  0  0  0  0
    7.8592   -2.8875    0.0000 C   0  0  0  0  0  0  0  0  0  0  0  0
    7.8592   -3.7125    0.0000 C   0  0  0  0  0  0  0  0  0  0  0  0
    7.1447   -4.1250    0.0000 C   0  0  0  0  0  0  0  0  0  0  0  0
    6.4302   -3.7125    0.0000 C   0  0  0  0  0  0  0  0  0  0  0  0
    8.5737   -2.4750    0.0000 N   0  3  0  0  0  0  0  0  0  0  0  0
    8.5737   -1.6500    0.0000 O   0  0  0  0  0  0  0  0  0  0  0  0
    9.2881   -2.8875    0.0000 O   0  5  0  0  0  0  0  0  0  0  0  0
  1  2  1  0  0  0  0
  2  3  1  0  0  0  0
  2  4  2  0  0  0  0
  1  5  2  0  0  0  0
  5  6  1  0  0  0  0
  6  7  2  0  0  0  0
  7  8  1  0  0  0  0
  8  9  2  0  0  0  0
  1  9  1  0  0  0  0
 11 12  2  0  0  0  0
 11 13  1  0  0  0  0
 13 14  2  0  0  0  0
 15 16  2  0  0  0  0
 16 17  1  0  0  0  0
 17 18  2  0  0  0  0
 18 19  1  0  0  0  0
 19 20  2  0  0  0  0
 15 20  1  0  0  0  0
 21 22  2  0  0  0  0
 21 23  1  0  0  0  0
 17 21  1  0  0  0  0
 13 15  1  0  0  0  0
 10 11  1  0  0  0  0
  5 10  1  0  0  0  0
M  CHG  2  21   1  23  -1
M  END
>  <type>
systematic

$$$$
1-[[(2R)-2-Cyclohexyl-2-hydroxyacetyl]amino]cyclopentanecarboxylic acid
  Mrv2401 11012419532D          

 19 20  0  0  1  0            999 V2000
    2.8452   -2.1931    0.0000 C   0  0  0  0  0  0  0  0  0  0  0  0
    2.1777   -2.6780    0.0000 C   0  0  0  0  0  0  0  0  0  0  0  0
    2.4327   -3.4626    0.0000 C   0  0  0  0  0  0  0  0  0  0  0  0
    3.2577   -3.4626    0.0000 C   0  0  0  0  0  0  0  0  0  0  0  0
    3.5126   -2.6780    0.0000 C   0  0  0  0  0  0  0  0  0  0  0  0
    2.4402   -1.4743    0.0000 C   0  0  0  0  0  0  0  0  0  0  0  0
    2.8601   -0.7642    0.0000 O   0  0  0  0  0  0  0  0  0  0  0  0
    1.6152   -1.4657    0.0000 O   0  0  0  0  0  0  0  0  0  0  0  0
    3.2502   -1.4743    0.0000 N   0  0  0  0  0  0  0  0  0  0  0  0
    4.0751   -1.4657    0.0000 C   0  0  0  0  0  0  0  0  0  0  0  0
    4.4951   -2.1758    0.0000 O   0  0  0  0  0  0  0  0  0  0  0  0
    4.4801   -0.7469    0.0000 C   0  0  2  0  0  0  0  0  0  0  0  0
    4.0601   -0.0368    0.0000 O   0  0  0  0  0  0  0  0  0  0  0  0
    5.3051   -0.7383    0.0000 C   0  0  0  0  0  0  0  0  0  0  0  0
    5.7101   -0.0195    0.0000 C   0  0  0  0  0  0  0  0  0  0  0  0
    6.5350   -0.0109    0.0000 C   0  0  0  0  0  0  0  0  0  0  0  0
    6.9550   -0.7210    0.0000 C   0  0  0  0  0  0  0  0  0  0  0  0
    6.5500   -1.4398    0.0000 C   0  0  0  0  0  0  0  0  0  0  0  0
    5.7250   -1.4484    0.0000 C   0  0  0  0  0  0  0  0  0  0  0  0
  1  2  1  0  0  0  0
  2  3  1  0  0  0  0
  3  4  1  0  0  0  0
  4  5  1  0  0  0  0
  1  5  1  0  0  0  0
  6  7  1  0  0  0  0
  6  8  2  0  0  0  0
  1  6  1  0  0  0  0
 10 11  2  0  0  0  0
 12 10  1  0  0  0  0
 12 13  1  6  0  0  0
 14 15  1  0  0  0  0
 15 16  1  0  0  0  0
 16 17  1  0  0  0  0
 17 18  1  0  0  0  0
 18 19  1  0  0  0  0
 14 19  1  0  0  0  0
 12 14  1  0  0  0  0
  9 10  1  0  0  0  0
  1  9  1  0  0  0  0
M  END
>  <type>
systematic

$$$$
1-[[(2S)-2-Cyclohexyl-2-hydroxyacetyl]amino]cyclopentanecarboxylic acid
  Mrv2401 11012419542D          

 19 20  0  0  1  0            999 V2000
    2.8452   -2.1931    0.0000 C   0  0  0  0  0  0  0  0  0  0  0  0
    2.1777   -2.6780    0.0000 C   0  0  0  0  0  0  0  0  0  0  0  0
    2.4327   -3.4626    0.0000 C   0  0  0  0  0  0  0  0  0  0  0  0
    3.2577   -3.4626    0.0000 C   0  0  0  0  0  0  0  0  0  0  0  0
    3.5126   -2.6780    0.0000 C   0  0  0  0  0  0  0  0  0  0  0  0
    2.4402   -1.4743    0.0000 C   0  0  0  0  0  0  0  0  0  0  0  0
    2.8601   -0.7642    0.0000 O   0  0  0  0  0  0  0  0  0  0  0  0
    1.6152   -1.4657    0.0000 O   0  0  0  0  0  0  0  0  0  0  0  0
    3.2502   -1.4743    0.0000 N   0  0  0  0  0  0  0  0  0  0  0  0
    4.0751   -1.4657    0.0000 C   0  0  0  0  0  0  0  0  0  0  0  0
    4.4951   -2.1758    0.0000 O   0  0  0  0  0  0  0  0  0  0  0  0
    4.4801   -0.7469    0.0000 C   0  0  1  0  0  0  0  0  0  0  0  0
    4.0601   -0.0368    0.0000 O   0  0  0  0  0  0  0  0  0  0  0  0
    5.3051   -0.7383    0.0000 C   0  0  0  0  0  0  0  0  0  0  0  0
    5.7101   -0.0195    0.0000 C   0  0  0  0  0  0  0  0  0  0  0  0
    6.5350   -0.0109    0.0000 C   0  0  0  0  0  0  0  0  0  0  0  0
    6.9550   -0.7210    0.0000 C   0  0  0  0  0  0  0  0  0  0  0  0
    6.5500   -1.4398    0.0000 C   0  0  0  0  0  0  0  0  0  0  0  0
    5.7250   -1.4484    0.0000 C   0  0  0  0  0  0  0  0  0  0  0  0
  1  2  1  0  0  0  0
  2  3  1  0  0  0  0
  3  4  1  0  0  0  0
  4  5  1  0  0  0  0
  1  5  1  0  0  0  0
  6  7  1  0  0  0  0
  6  8  2  0  0  0  0
  1  6  1  0  0  0  0
 10 11  2  0  0  0  0
 12 10  1  0  0  0  0
 12 13  1  1  0  0  0
 14 15  1  0  0  0  0
 15 16  1  0  0  0  0
 16 17  1  0  0  0  0
 17 18  1  0  0  0  0
 18 19  1  0  0  0  0
 14 19  1  0  0  0  0
 12 14  1  0  0  0  0
  9 10  1  0  0  0  0
  1  9  1  0  0  0  0
M  END
>  <type>
systematic

$$$$
4-(Acetylamino)-3-[[2-(3-fluorophenyl)-2-oxoethyl]amino]benzoic acid
  Mrv2401 11012419542D          

 24 25  0  0  0  0            999 V2000
    2.8579   -2.4750    0.0000 C   0  0  0  0  0  0  0  0  0  0  0  0
    2.8579   -1.6500    0.0000 C   0  0  0  0  0  0  0  0  0  0  0  0
    2.1434   -1.2375    0.0000 O   0  0  0  0  0  0  0  0  0  0  0  0
    3.5724   -1.2375    0.0000 O   0  0  0  0  0  0  0  0  0  0  0  0
    3.5724   -2.8875    0.0000 C   0  0  0  0  0  0  0  0  0  0  0  0
    3.5724   -3.7125    0.0000 C   0  0  0  0  0  0  0  0  0  0  0  0
    2.8579   -4.1250    0.0000 C   0  0  0  0  0  0  0  0  0  0  0  0
    2.1434   -3.7125    0.0000 C   0  0  0  0  0  0  0  0  0  0  0  0
    2.1434   -2.8875    0.0000 C   0  0  0  0  0  0  0  0  0  0  0  0
    4.2868   -4.1250    0.0000 N   0  0  0  0  0  0  0  0  0  0  0  0
    4.2868   -4.9500    0.0000 C   0  0  0  0  0  0  0  0  0  0  0  0
    5.0013   -5.3625    0.0000 C   0  0  0  0  0  0  0  0  0  0  0  0
    5.7158   -4.9500    0.0000 O   0  0  0  0  0  0  0  0  0  0  0  0
    5.0013   -6.1875    0.0000 C   0  0  0  0  0  0  0  0  0  0  0  0
    5.7158   -6.6000    0.0000 C   0  0  0  0  0  0  0  0  0  0  0  0
    5.7158   -7.4250    0.0000 C   0  0  0  0  0  0  0  0  0  0  0  0
    5.0013   -7.8375    0.0000 C   0  0  0  0  0  0  0  0  0  0  0  0
    4.2868   -7.4250    0.0000 C   0  0  0  0  0  0  0  0  0  0  0  0
    4.2868   -6.6000    0.0000 C   0  0  0  0  0  0  0  0  0  0  0  0
    6.4302   -7.8375    0.0000 F   0  0  0  0  0  0  0  0  0  0  0  0
    2.8579   -4.9500    0.0000 N   0  0  0  0  0  0  0  0  0  0  0  0
    2.1434   -5.3625    0.0000 C   0  0  0  0  0  0  0  0  0  0  0  0
    1.4289   -4.9500    0.0000 O   0  0  0  0  0  0  0  0  0  0  0  0
    2.1434   -6.1875    0.0000 C   0  0  0  0  0  0  0  0  0  0  0  0
  1  2  1  0  0  0  0
  2  3  1  0  0  0  0
  2  4  2  0  0  0  0
  1  5  2  0  0  0  0
  5  6  1  0  0  0  0
  6  7  2  0  0  0  0
  7  8  1  0  0  0  0
  8  9  2  0  0  0  0
  1  9  1  0  0  0  0
 11 12  1  0  0  0  0
 12 13  2  0  0  0  0
 14 15  2  0  0  0  0
 15 16  1  0  0  0  0
 16 17  2  0  0  0  0
 17 18  1  0  0  0  0
 18 19  2  0  0  0  0
 14 19  1  0  0  0  0
 16 20  1  0  0  0  0
 12 14  1  0  0  0  0
 10 11  1  0  0  0  0
  6 10  1  0  0  0  0
 22 23  2  0  0  0  0
 22 24  1  0  0  0  0
 21 22  1  0  0  0  0
  7 21  1  0  0  0  0
M  END
>  <type>
systematic

$$$$
2-[2-(4-Nitrobenzoyl)hydrazinyl]benzoic acid
  Mrv2401 11012419552D          

 22 23  0  0  0  0            999 V2000
    2.8579   -2.4750    0.0000 C   0  0  0  0  0  0  0  0  0  0  0  0
    2.8579   -1.6500    0.0000 C   0  0  0  0  0  0  0  0  0  0  0  0
    2.1434   -1.2375    0.0000 O   0  0  0  0  0  0  0  0  0  0  0  0
    3.5724   -1.2375    0.0000 O   0  0  0  0  0  0  0  0  0  0  0  0
    3.5724   -2.8875    0.0000 C   0  0  0  0  0  0  0  0  0  0  0  0
    3.5724   -3.7125    0.0000 C   0  0  0  0  0  0  0  0  0  0  0  0
    2.8579   -4.1250    0.0000 C   0  0  0  0  0  0  0  0  0  0  0  0
    2.1434   -3.7125    0.0000 C   0  0  0  0  0  0  0  0  0  0  0  0
    2.1434   -2.8875    0.0000 C   0  0  0  0  0  0  0  0  0  0  0  0
    4.2868   -2.4750    0.0000 N   0  0  0  0  0  0  0  0  0  0  0  0
    5.0013   -2.8875    0.0000 N   0  0  0  0  0  0  0  0  0  0  0  0
    5.7158   -2.4750    0.0000 C   0  0  0  0  0  0  0  0  0  0  0  0
    5.7158   -1.6500    0.0000 O   0  0  0  0  0  0  0  0  0  0  0  0
    6.4302   -2.8875    0.0000 C   0  0  0  0  0  0  0  0  0  0  0  0
    7.1447   -2.4750    0.0000 C   0  0  0  0  0  0  0  0  0  0  0  0
    7.8592   -2.8875    0.0000 C   0  0  0  0  0  0  0  0  0  0  0  0
    7.8592   -3.7125    0.0000 C   0  0  0  0  0  0  0  0  0  0  0  0
    7.1447   -4.1250    0.0000 C   0  0  0  0  0  0  0  0  0  0  0  0
    6.4302   -3.7125    0.0000 C   0  0  0  0  0  0  0  0  0  0  0  0
    8.5737   -4.1250    0.0000 N   0  3  0  0  0  0  0  0  0  0  0  0
    9.2881   -3.7125    0.0000 O   0  0  0  0  0  0  0  0  0  0  0  0
    8.5737   -4.9500    0.0000 O   0  5  0  0  0  0  0  0  0  0  0  0
  1  2  1  0  0  0  0
  2  3  1  0  0  0  0
  2  4  2  0  0  0  0
  1  5  2  0  0  0  0
  5  6  1  0  0  0  0
  6  7  2  0  0  0  0
  7  8  1  0  0  0  0
  8  9  2  0  0  0  0
  1  9  1  0  0  0  0
 10 11  1  0  0  0  0
 12 13  2  0  0  0  0
 12 14  1  0  0  0  0
 14 15  2  0  0  0  0
 15 16  1  0  0  0  0
 16 17  2  0  0  0  0
 17 18  1  0  0  0  0
 18 19  2  0  0  0  0
 14 19  1  0  0  0  0
 20 21  2  0  0  0  0
 20 22  1  0  0  0  0
 17 20  1  0  0  0  0
 11 12  1  0  0  0  0
  5 10  1  0  0  0  0
M  CHG  2  20   1  22  -1
M  END
>  <type>
systematic

$$$$
2-[(2-Bicyclo[2.2.1]hept-2-yl-2-oxoethyl)amino]-5-chlorobenzoic acid
  Mrv2401 11012419552D          

 21 23  0  0  0  0            999 V2000
   -3.2055    1.0257    0.0000 C   0  0  0  0  0  0  0  0  0  0  0  0
   -3.2055    1.8507    0.0000 C   0  0  0  0  0  0  0  0  0  0  0  0
   -3.9200    2.2632    0.0000 O   0  0  0  0  0  0  0  0  0  0  0  0
   -2.4911    2.2632    0.0000 O   0  0  0  0  0  0  0  0  0  0  0  0
   -2.4911    0.6132    0.0000 C   0  0  0  0  0  0  0  0  0  0  0  0
   -2.4911   -0.2118    0.0000 C   0  0  0  0  0  0  0  0  0  0  0  0
   -3.2055   -0.6243    0.0000 C   0  0  0  0  0  0  0  0  0  0  0  0
   -3.9200   -0.2118    0.0000 C   0  0  0  0  0  0  0  0  0  0  0  0
   -3.9200    0.6132    0.0000 C   0  0  0  0  0  0  0  0  0  0  0  0
   -4.6345   -0.6243    0.0000 Cl  0  0  0  0  0  0  0  0  0  0  0  0
   -1.7766    1.0257    0.0000 N   0  0  0  0  0  0  0  0  0  0  0  0
   -1.0621    0.6132    0.0000 C   0  0  0  0  0  0  0  0  0  0  0  0
   -0.3477    1.0257    0.0000 C   0  0  0  0  0  0  0  0  0  0  0  0
   -0.3477    1.8507    0.0000 O   0  0  0  0  0  0  0  0  0  0  0  0
    1.0813    1.0257    0.0000 C   0  0  0  0  0  0  0  0  0  0  0  0
    1.2875    0.2007    0.0000 C   0  0  0  0  0  0  0  0  0  0  0  0
    0.3668    0.6132    0.0000 C   0  0  0  0  0  0  0  0  0  0  0  0
    0.3668   -0.2118    0.0000 C   0  0  0  0  0  0  0  0  0  0  0  0
    1.0813   -0.6243    0.0000 C   0  0  0  0  0  0  0  0  0  0  0  0
    1.7957   -0.2118    0.0000 C   0  0  0  0  0  0  0  0  0  0  0  0
    1.7957    0.6132    0.0000 C   0  0  0  0  0  0  0  0  0  0  0  0
  1  2  1  0  0  0  0
  2  3  1  0  0  0  0
  2  4  2  0  0  0  0
  1  5  2  0  0  0  0
  5  6  1  0  0  0  0
  6  7  2  0  0  0  0
  7  8  1  0  0  0  0
  8  9  2  0  0  0  0
  1  9  1  0  0  0  0
  8 10  1  0  0  0  0
 12 13  1  0  0  0  0
 13 14  2  0  0  0  0
 15 16  1  0  0  0  0
 15 17  1  0  0  0  0
 17 18  1  0  0  0  0
 18 19  1  0  0  0  0
 16 19  1  0  0  0  0
 19 20  1  0  0  0  0
 20 21  1  0  0  0  0
 15 21  1  0  0  0  0
 13 17  1  0  0  0  0
 11 12  1  0  0  0  0
  5 11  1  0  0  0  0
M  END
>  <type>
systematic

$$$$
5-Chloro-2-[[2-(4-methylphenyl)-2-oxoacetyl]amino]benzoic acid
  Mrv2401 11012419562D          

 22 23  0  0  0  0            999 V2000
    2.8579   -2.4750    0.0000 C   0  0  0  0  0  0  0  0  0  0  0  0
    2.8579   -1.6500    0.0000 C   0  0  0  0  0  0  0  0  0  0  0  0
    2.1434   -1.2375    0.0000 O   0  0  0  0  0  0  0  0  0  0  0  0
    3.5724   -1.2375    0.0000 O   0  0  0  0  0  0  0  0  0  0  0  0
    3.5724   -2.8875    0.0000 C   0  0  0  0  0  0  0  0  0  0  0  0
    3.5724   -3.7125    0.0000 C   0  0  0  0  0  0  0  0  0  0  0  0
    2.8579   -4.1250    0.0000 C   0  0  0  0  0  0  0  0  0  0  0  0
    2.1434   -3.7125    0.0000 C   0  0  0  0  0  0  0  0  0  0  0  0
    2.1434   -2.8875    0.0000 C   0  0  0  0  0  0  0  0  0  0  0  0
    4.2868   -2.4750    0.0000 N   0  0  0  0  0  0  0  0  0  0  0  0
    5.0013   -2.8875    0.0000 C   0  0  0  0  0  0  0  0  0  0  0  0
    5.0013   -3.7125    0.0000 O   0  0  0  0  0  0  0  0  0  0  0  0
    5.7158   -2.4750    0.0000 C   0  0  0  0  0  0  0  0  0  0  0  0
    5.7158   -1.6500    0.0000 O   0  0  0  0  0  0  0  0  0  0  0  0
    6.4302   -2.8875    0.0000 C   0  0  0  0  0  0  0  0  0  0  0  0
    7.1447   -2.4750    0.0000 C   0  0  0  0  0  0  0  0  0  0  0  0
    7.8592   -2.8875    0.0000 C   0  0  0  0  0  0  0  0  0  0  0  0
    7.8592   -3.7125    0.0000 C   0  0  0  0  0  0  0  0  0  0  0  0
    7.1447   -4.1250    0.0000 C   0  0  0  0  0  0  0  0  0  0  0  0
    6.4302   -3.7125    0.0000 C   0  0  0  0  0  0  0  0  0  0  0  0
    8.5737   -4.1250    0.0000 C   0  0  0  0  0  0  0  0  0  0  0  0
    1.4289   -4.1250    0.0000 Cl  0  0  0  0  0  0  0  0  0  0  0  0
  1  2  1  0  0  0  0
  2  3  1  0  0  0  0
  2  4  2  0  0  0  0
  1  5  2  0  0  0  0
  5  6  1  0  0  0  0
  6  7  2  0  0  0  0
  7  8  1  0  0  0  0
  8  9  2  0  0  0  0
  1  9  1  0  0  0  0
 11 12  2  0  0  0  0
 11 13  1  0  0  0  0
 13 14  2  0  0  0  0
 15 16  2  0  0  0  0
 16 17  1  0  0  0  0
 17 18  2  0  0  0  0
 18 19  1  0  0  0  0
 19 20  2  0  0  0  0
 15 20  1  0  0  0  0
 18 21  1  0  0  0  0
 13 15  1  0  0  0  0
 10 11  1  0  0  0  0
  5 10  1  0  0  0  0
  8 22  1  0  0  0  0
M  END
>  <type>
systematic

$$$$
4-[[2-(4-Cyclohexylphenyl)-2-oxoacetyl]amino]benzoic acid
  Mrv2401 11012419562D          

 26 28  0  0  0  0            999 V2000
    2.8579   -4.9500    0.0000 C   0  0  0  0  0  0  0  0  0  0  0  0
    2.8579   -4.1250    0.0000 C   0  0  0  0  0  0  0  0  0  0  0  0
    2.1434   -3.7125    0.0000 O   0  0  0  0  0  0  0  0  0  0  0  0
    3.5724   -3.7125    0.0000 O   0  0  0  0  0  0  0  0  0  0  0  0
    3.5724   -5.3625    0.0000 C   0  0  0  0  0  0  0  0  0  0  0  0
    3.5724   -6.1875    0.0000 C   0  0  0  0  0  0  0  0  0  0  0  0
    2.8579   -6.6000    0.0000 C   0  0  0  0  0  0  0  0  0  0  0  0
    2.1434   -6.1875    0.0000 C   0  0  0  0  0  0  0  0  0  0  0  0
    2.1434   -5.3625    0.0000 C   0  0  0  0  0  0  0  0  0  0  0  0
    2.8579   -7.4250    0.0000 N   0  0  0  0  0  0  0  0  0  0  0  0
    2.1434   -7.8375    0.0000 C   0  0  0  0  0  0  0  0  0  0  0  0
    1.4289   -7.4250    0.0000 O   0  0  0  0  0  0  0  0  0  0  0  0
    2.1434   -8.6625    0.0000 C   0  0  0  0  0  0  0  0  0  0  0  0
    2.8579   -9.0750    0.0000 O   0  0  0  0  0  0  0  0  0  0  0  0
    1.4289   -9.0750    0.0000 C   0  0  0  0  0  0  0  0  0  0  0  0
    1.4289   -9.9000    0.0000 C   0  0  0  0  0  0  0  0  0  0  0  0
    0.7145  -10.3125    0.0000 C   0  0  0  0  0  0  0  0  0  0  0  0
    0.0000   -9.9000    0.0000 C   0  0  0  0  0  0  0  0  0  0  0  0
    0.0000   -9.0750    0.0000 C   0  0  0  0  0  0  0  0  0  0  0  0
    0.7145   -8.6625    0.0000 C   0  0  0  0  0  0  0  0  0  0  0  0
   -0.7145  -10.3125    0.0000 C   0  0  0  0  0  0  0  0  0  0  0  0
   -0.7145  -11.1375    0.0000 C   0  0  0  0  0  0  0  0  0  0  0  0
   -1.4289  -11.5500    0.0000 C   0  0  0  0  0  0  0  0  0  0  0  0
   -2.1434  -11.1375    0.0000 C   0  0  0  0  0  0  0  0  0  0  0  0
   -2.1434  -10.3125    0.0000 C   0  0  0  0  0  0  0  0  0  0  0  0
   -1.4289   -9.9000    0.0000 C   0  0  0  0  0  0  0  0  0  0  0  0
  1  2  1  0  0  0  0
  2  3  1  0  0  0  0
  2  4  2  0  0  0  0
  1  5  2  0  0  0  0
  5  6  1  0  0  0  0
  6  7  2  0  0  0  0
  7  8  1  0  0  0  0
  8  9  2  0  0  0  0
  1  9  1  0  0  0  0
 11 12  2  0  0  0  0
 11 13  1  0  0  0  0
 13 14  2  0  0  0  0
 15 16  2  0  0  0  0
 16 17  1  0  0  0  0
 17 18  2  0  0  0  0
 18 19  1  0  0  0  0
 19 20  2  0  0  0  0
 15 20  1  0  0  0  0
 21 22  1  0  0  0  0
 22 23  1  0  0  0  0
 23 24  1  0  0  0  0
 24 25  1  0  0  0  0
 25 26  1  0  0  0  0
 21 26  1  0  0  0  0
 18 21  1  0  0  0  0
 13 15  1  0  0  0  0
 10 11  1  0  0  0  0
  7 10  1  0  0  0  0
M  END
>  <type>
systematic

$$$$
3-Pyridinecarboxylic acid, 2- (2-amino-4-carboxyphenyl)hydrazide
  Mrv2401 11012419572D          

 20 21  0  0  0  0            999 V2000
    2.1434   -3.7125    0.0000 N   0  0  0  0  0  0  0  0  0  0  0  0
    2.1434   -2.8875    0.0000 C   0  0  0  0  0  0  0  0  0  0  0  0
    2.8579   -2.4750    0.0000 C   0  0  0  0  0  0  0  0  0  0  0  0
    3.5724   -2.8875    0.0000 C   0  0  0  0  0  0  0  0  0  0  0  0
    3.5724   -3.7125    0.0000 C   0  0  0  0  0  0  0  0  0  0  0  0
    2.8579   -4.1250    0.0000 C   0  0  0  0  0  0  0  0  0  0  0  0
    2.8579   -1.6500    0.0000 C   0  0  0  0  0  0  0  0  0  0  0  0
    2.1434   -1.2375    0.0000 O   0  0  0  0  0  0  0  0  0  0  0  0
    3.5724   -0.4125    0.0000 N   0  0  0  0  0  0  0  0  0  0  0  0
    3.5724   -1.2375    0.0000 N   0  0  0  0  0  0  0  0  0  0  0  0
    4.2868    0.0000    0.0000 C   0  0  0  0  0  0  0  0  0  0  0  0
    4.2868    0.8250    0.0000 C   0  0  0  0  0  0  0  0  0  0  0  0
    5.0013    1.2375    0.0000 C   0  0  0  0  0  0  0  0  0  0  0  0
    5.7158    0.8250    0.0000 C   0  0  0  0  0  0  0  0  0  0  0  0
    5.7158   -0.0000    0.0000 C   0  0  0  0  0  0  0  0  0  0  0  0
    5.0013   -0.4125    0.0000 C   0  0  0  0  0  0  0  0  0  0  0  0
    6.4302    1.2375    0.0000 C   0  0  0  0  0  0  0  0  0  0  0  0
    6.4302    2.0625    0.0000 O   0  0  0  0  0  0  0  0  0  0  0  0
    7.1447    0.8250    0.0000 O   0  0  0  0  0  0  0  0  0  0  0  0
    3.5724    1.2375    0.0000 N   0  0  0  0  0  0  0  0  0  0  0  0
  1  2  2  0  0  0  0
  2  3  1  0  0  0  0
  3  4  2  0  0  0  0
  4  5  1  0  0  0  0
  5  6  2  0  0  0  0
  1  6  1  0  0  0  0
  7  8  2  0  0  0  0
  3  7  1  0  0  0  0
  9 10  1  0  0  0  0
 11 12  2  0  0  0  0
 12 13  1  0  0  0  0
 13 14  2  0  0  0  0
 14 15  1  0  0  0  0
 15 16  2  0  0  0  0
 11 16  1  0  0  0  0
 17 18  1  0  0  0  0
 17 19  2  0  0  0  0
 14 17  1  0  0  0  0
 12 20  1  0  0  0  0
  9 11  1  0  0  0  0
  7 10  1  0  0  0  0
M  END
>  <type>
systematic

$$$$
4-[[2-[(2S)-2-Cyano-1-pyrrolidinyl]-2-oxoethyl]amino]bicyclo[2.2.2]octane-1-carboxylic acid
  Mrv2401 11012419582D          

 22 24  0  0  1  0            999 V2000
    0.8106   -0.2459    0.0000 C   0  0  0  0  0  0  0  0  0  0  0  0
    0.0962    0.1666    0.0000 C   0  0  0  0  0  0  0  0  0  0  0  0
    0.0962    0.9916    0.0000 C   0  0  0  0  0  0  0  0  0  0  0  0
    1.5251    0.1666    0.0000 C   0  0  0  0  0  0  0  0  0  0  0  0
    1.5251    0.9916    0.0000 C   0  0  0  0  0  0  0  0  0  0  0  0
    0.8106    1.4041    0.0000 C   0  0  0  0  0  0  0  0  0  0  0  0
    0.9481    0.8541    0.0000 C   0  0  0  0  0  0  0  0  0  0  0  0
    0.9481    0.3041    0.0000 C   0  0  0  0  0  0  0  0  0  0  0  0
    0.8106   -1.0709    0.0000 C   0  0  0  0  0  0  0  0  0  0  0  0
    0.0962   -1.4834    0.0000 O   0  0  0  0  0  0  0  0  0  0  0  0
    1.5251   -1.4834    0.0000 O   0  0  0  0  0  0  0  0  0  0  0  0
    0.8106    2.2291    0.0000 N   0  0  0  0  0  0  0  0  0  0  0  0
    1.5251    2.6416    0.0000 C   0  0  0  0  0  0  0  0  0  0  0  0
    1.5251    3.4666    0.0000 C   0  0  0  0  0  0  0  0  0  0  0  0
    0.8106    3.8791    0.0000 O   0  0  0  0  0  0  0  0  0  0  0  0
    2.2396    3.8791    0.0000 N   0  0  0  0  0  0  0  0  0  0  0  0
    2.3258    4.6995    0.0000 C   0  0  1  0  0  0  0  0  0  0  0  0
    3.1328    4.8711    0.0000 C   0  0  0  0  0  0  0  0  0  0  0  0
    3.5453    4.1566    0.0000 C   0  0  0  0  0  0  0  0  0  0  0  0
    2.9932    3.5435    0.0000 C   0  0  0  0  0  0  0  0  0  0  0  0
    1.7127    5.2516    0.0000 C   0  0  0  0  0  0  0  0  0  0  0  0
    1.0996    5.8036    0.0000 N   0  0  0  0  0  0  0  0  0  0  0  0
  1  2  1  0  0  0  0
  2  3  1  0  0  0  0
  1  4  1  0  0  0  0
  4  5  1  0  0  0  0
  5  6  1  0  0  0  0
  3  6  1  0  0  0  0
  6  7  1  0  0  0  0
  7  8  1  0  0  0  0
  1  8  1  0  0  0  0
  9 10  1  0  0  0  0
  9 11  2  0  0  0  0
  1  9  1  0  0  0  0
 13 14  1  0  0  0  0
 14 15  2  0  0  0  0
 17 16  1  0  0  0  0
 17 18  1  0  0  0  0
 18 19  1  0  0  0  0
 19 20  1  0  0  0  0
 16 20  1  0  0  0  0
 21 22  3  0  0  0  0
 17 21  1  6  0  0  0
 14 16  1  0  0  0  0
 12 13  1  0  0  0  0
  6 12  1  0  0  0  0
M  END
>  <type>
systematic

$$$$
4-[[2-(2-Benzothiazolyl)-2-oxoethyl]amino]benzoic acid
  Mrv2401 11012419582D          

 22 24  0  0  0  0            999 V2000
   -3.9284   -3.5558    0.0000 C   0  0  0  0  0  0  0  0  0  0  0  0
   -4.3409   -4.2703    0.0000 C   0  0  0  0  0  0  0  0  0  0  0  0
   -3.9284   -4.9848    0.0000 O   0  0  0  0  0  0  0  0  0  0  0  0
   -5.1659   -4.2703    0.0000 O   0  0  0  0  0  0  0  0  0  0  0  0
   -4.3409   -2.8414    0.0000 C   0  0  0  0  0  0  0  0  0  0  0  0
   -3.9284   -2.1269    0.0000 C   0  0  0  0  0  0  0  0  0  0  0  0
   -3.1034   -2.1269    0.0000 C   0  0  0  0  0  0  0  0  0  0  0  0
   -2.6909   -2.8414    0.0000 C   0  0  0  0  0  0  0  0  0  0  0  0
   -3.1034   -3.5558    0.0000 C   0  0  0  0  0  0  0  0  0  0  0  0
   -2.6909   -1.4124    0.0000 N   0  0  0  0  0  0  0  0  0  0  0  0
   -1.8659   -1.4124    0.0000 C   0  0  0  0  0  0  0  0  0  0  0  0
   -1.4534   -0.6979    0.0000 C   0  0  0  0  0  0  0  0  0  0  0  0
   -1.8659    0.0165    0.0000 O   0  0  0  0  0  0  0  0  0  0  0  0
    0.6411   -1.1104    0.0000 C   0  0  0  0  0  0  0  0  0  0  0  0
   -0.1435   -1.3654    0.0000 S   0  0  0  0  0  0  0  0  0  0  0  0
   -0.6284   -0.6979    0.0000 C   0  0  0  0  0  0  0  0  0  0  0  0
   -0.1435   -0.0305    0.0000 N   0  0  0  0  0  0  0  0  0  0  0  0
    0.6411   -0.2854    0.0000 C   0  0  0  0  0  0  0  0  0  0  0  0
    1.3556    0.1271    0.0000 C   0  0  0  0  0  0  0  0  0  0  0  0
    2.0701   -0.2854    0.0000 C   0  0  0  0  0  0  0  0  0  0  0  0
    2.0701   -1.1104    0.0000 C   0  0  0  0  0  0  0  0  0  0  0  0
    1.3556   -1.5229    0.0000 C   0  0  0  0  0  0  0  0  0  0  0  0
  1  2  1  0  0  0  0
  2  3  1  0  0  0  0
  2  4  2  0  0  0  0
  1  5  2  0  0  0  0
  5  6  1  0  0  0  0
  6  7  2  0  0  0  0
  7  8  1  0  0  0  0
  8  9  2  0  0  0  0
  1  9  1  0  0  0  0
 11 12  1  0  0  0  0
 12 13  2  0  0  0  0
 14 15  1  0  0  0  0
 15 16  1  0  0  0  0
 16 17  2  0  0  0  0
 17 18  1  0  0  0  0
 14 18  1  0  0  0  0
 18 19  2  0  0  0  0
 19 20  1  0  0  0  0
 20 21  2  0  0  0  0
 21 22  1  0  0  0  0
 14 22  2  0  0  0  0
 12 16  1  0  0  0  0
 10 11  1  0  0  0  0
  7 10  1  0  0  0  0
M  END
>  <type>
systematic

$$$$
4-[[2-(4-Chloro-3-nitrophenyl)-1-ethoxy-2-oxoethyl]amino]benzoic acid
  Mrv2401 11012419592D          

 26 27  0  0  0  0            999 V2000
    0.7145   -4.5375    0.0000 C   0  0  0  0  0  0  0  0  0  0  0  0
    0.7145   -5.3625    0.0000 C   0  0  0  0  0  0  0  0  0  0  0  0
    1.4289   -5.7750    0.0000 O   0  0  0  0  0  0  0  0  0  0  0  0
    0.0000   -5.7750    0.0000 O   0  0  0  0  0  0  0  0  0  0  0  0
    0.0000   -4.1250    0.0000 C   0  0  0  0  0  0  0  0  0  0  0  0
    0.0000   -3.3000    0.0000 C   0  0  0  0  0  0  0  0  0  0  0  0
    0.7145   -2.8875    0.0000 C   0  0  0  0  0  0  0  0  0  0  0  0
    1.4289   -3.3000    0.0000 C   0  0  0  0  0  0  0  0  0  0  0  0
    1.4289   -4.1250    0.0000 C   0  0  0  0  0  0  0  0  0  0  0  0
    0.7145   -2.0625    0.0000 N   0  0  0  0  0  0  0  0  0  0  0  0
    1.4289   -1.6500    0.0000 C   0  0  0  0  0  0  0  0  0  0  0  0
    1.4289   -0.8250    0.0000 C   0  0  0  0  0  0  0  0  0  0  0  0
    0.7145   -0.4125    0.0000 O   0  0  0  0  0  0  0  0  0  0  0  0
    2.1434   -2.0625    0.0000 O   0  0  0  0  0  0  0  0  0  0  0  0
    2.8579   -1.6500    0.0000 C   0  0  0  0  0  0  0  0  0  0  0  0
    3.5724   -2.0625    0.0000 C   0  0  0  0  0  0  0  0  0  0  0  0
    2.1434   -0.4125    0.0000 C   0  0  0  0  0  0  0  0  0  0  0  0
    2.1434    0.4125    0.0000 C   0  0  0  0  0  0  0  0  0  0  0  0
    2.8579    0.8250    0.0000 C   0  0  0  0  0  0  0  0  0  0  0  0
    3.5724    0.4125    0.0000 C   0  0  0  0  0  0  0  0  0  0  0  0
    3.5724   -0.4125    0.0000 C   0  0  0  0  0  0  0  0  0  0  0  0
    2.8579   -0.8250    0.0000 C   0  0  0  0  0  0  0  0  0  0  0  0
    2.8579    1.6500    0.0000 N   0  3  0  0  0  0  0  0  0  0  0  0
    2.1434    2.0625    0.0000 O   0  0  0  0  0  0  0  0  0  0  0  0
    3.5724    2.0625    0.0000 O   0  5  0  0  0  0  0  0  0  0  0  0
    4.2868    0.8250    0.0000 Cl  0  0  0  0  0  0  0  0  0  0  0  0
  1  2  1  0  0  0  0
  2  3  1  0  0  0  0
  2  4  2  0  0  0  0
  1  5  2  0  0  0  0
  5  6  1  0  0  0  0
  6  7  2  0  0  0  0
  7  8  1  0  0  0  0
  8  9  2  0  0  0  0
  1  9  1  0  0  0  0
 11 12  1  0  0  0  0
 12 13  2  0  0  0  0
 15 16  1  0  0  0  0
 14 15  1  0  0  0  0
 11 14  1  0  0  0  0
 17 18  2  0  0  0  0
 18 19  1  0  0  0  0
 19 20  2  0  0  0  0
 20 21  1  0  0  0  0
 21 22  2  0  0  0  0
 17 22  1  0  0  0  0
 23 24  2  0  0  0  0
 23 25  1  0  0  0  0
 19 23  1  0  0  0  0
 20 26  1  0  0  0  0
 12 17  1  0  0  0  0
 10 11  1  0  0  0  0
  7 10  1  0  0  0  0
M  CHG  2  23   1  25  -1
M  END
>  <type>
systematic

$$$$
3-[2-[4-(Dimethylamino)benzoyl]hydrazinyl]benzoic acid
  Mrv2401 11012420002D          

 22 23  0  0  0  0            999 V2000
    2.8579   -2.4750    0.0000 C   0  0  0  0  0  0  0  0  0  0  0  0
    2.8579   -1.6500    0.0000 C   0  0  0  0  0  0  0  0  0  0  0  0
    2.1434   -1.2375    0.0000 O   0  0  0  0  0  0  0  0  0  0  0  0
    3.5724   -1.2375    0.0000 O   0  0  0  0  0  0  0  0  0  0  0  0
    3.5724   -2.8875    0.0000 C   0  0  0  0  0  0  0  0  0  0  0  0
    3.5724   -3.7125    0.0000 C   0  0  0  0  0  0  0  0  0  0  0  0
    2.8579   -4.1250    0.0000 C   0  0  0  0  0  0  0  0  0  0  0  0
    2.1434   -3.7125    0.0000 C   0  0  0  0  0  0  0  0  0  0  0  0
    2.1434   -2.8875    0.0000 C   0  0  0  0  0  0  0  0  0  0  0  0
    4.2868   -4.1250    0.0000 N   0  0  0  0  0  0  0  0  0  0  0  0
    4.2868   -4.9500    0.0000 N   0  0  0  0  0  0  0  0  0  0  0  0
    5.0013   -5.3625    0.0000 C   0  0  0  0  0  0  0  0  0  0  0  0
    5.7158   -4.9500    0.0000 O   0  0  0  0  0  0  0  0  0  0  0  0
    5.0013   -6.1875    0.0000 C   0  0  0  0  0  0  0  0  0  0  0  0
    5.7158   -6.6000    0.0000 C   0  0  0  0  0  0  0  0  0  0  0  0
    5.7158   -7.4250    0.0000 C   0  0  0  0  0  0  0  0  0  0  0  0
    5.0013   -7.8375    0.0000 C   0  0  0  0  0  0  0  0  0  0  0  0
    4.2868   -7.4250    0.0000 C   0  0  0  0  0  0  0  0  0  0  0  0
    4.2868   -6.6000    0.0000 C   0  0  0  0  0  0  0  0  0  0  0  0
    5.0013   -8.6625    0.0000 N   0  0  0  0  0  0  0  0  0  0  0  0
    5.7158   -9.0750    0.0000 C   0  0  0  0  0  0  0  0  0  0  0  0
    4.2868   -9.0750    0.0000 C   0  0  0  0  0  0  0  0  0  0  0  0
  1  2  1  0  0  0  0
  2  3  1  0  0  0  0
  2  4  2  0  0  0  0
  1  5  2  0  0  0  0
  5  6  1  0  0  0  0
  6  7  2  0  0  0  0
  7  8  1  0  0  0  0
  8  9  2  0  0  0  0
  1  9  1  0  0  0  0
 10 11  1  0  0  0  0
 12 13  2  0  0  0  0
 12 14  1  0  0  0  0
 14 15  2  0  0  0  0
 15 16  1  0  0  0  0
 16 17  2  0  0  0  0
 17 18  1  0  0  0  0
 18 19  2  0  0  0  0
 14 19  1  0  0  0  0
 20 21  1  0  0  0  0
 20 22  1  0  0  0  0
 17 20  1  0  0  0  0
 11 12  1  0  0  0  0
  6 10  1  0  0  0  0
M  END
>  <type>
systematic

$$$$
4-(2-Benzoylhydrazinyl)-3-bromobenzoic acid
  Mrv2401 11012420012D          

 20 21  0  0  0  0            999 V2000
    2.8579   -2.4750    0.0000 C   0  0  0  0  0  0  0  0  0  0  0  0
    2.8579   -1.6500    0.0000 C   0  0  0  0  0  0  0  0  0  0  0  0
    2.1434   -1.2375    0.0000 O   0  0  0  0  0  0  0  0  0  0  0  0
    3.5724   -1.2375    0.0000 O   0  0  0  0  0  0  0  0  0  0  0  0
    3.5724   -2.8875    0.0000 C   0  0  0  0  0  0  0  0  0  0  0  0
    3.5724   -3.7125    0.0000 C   0  0  0  0  0  0  0  0  0  0  0  0
    2.8579   -4.1250    0.0000 C   0  0  0  0  0  0  0  0  0  0  0  0
    2.1434   -3.7125    0.0000 C   0  0  0  0  0  0  0  0  0  0  0  0
    2.1434   -2.8875    0.0000 C   0  0  0  0  0  0  0  0  0  0  0  0
    4.2868   -4.1250    0.0000 Br  0  0  0  0  0  0  0  0  0  0  0  0
    2.8579   -4.9500    0.0000 N   0  0  0  0  0  0  0  0  0  0  0  0
    2.1434   -5.3625    0.0000 N   0  0  0  0  0  0  0  0  0  0  0  0
    2.1434   -6.1875    0.0000 C   0  0  0  0  0  0  0  0  0  0  0  0
    2.8579   -6.6000    0.0000 O   0  0  0  0  0  0  0  0  0  0  0  0
    1.4289   -6.6000    0.0000 C   0  0  0  0  0  0  0  0  0  0  0  0
    1.4289   -7.4250    0.0000 C   0  0  0  0  0  0  0  0  0  0  0  0
    0.7145   -7.8375    0.0000 C   0  0  0  0  0  0  0  0  0  0  0  0
    0.0000   -7.4250    0.0000 C   0  0  0  0  0  0  0  0  0  0  0  0
    0.0000   -6.6000    0.0000 C   0  0  0  0  0  0  0  0  0  0  0  0
    0.7145   -6.1875    0.0000 C   0  0  0  0  0  0  0  0  0  0  0  0
  1  2  1  0  0  0  0
  2  3  1  0  0  0  0
  2  4  2  0  0  0  0
  1  5  2  0  0  0  0
  5  6  1  0  0  0  0
  6  7  2  0  0  0  0
  7  8  1  0  0  0  0
  8  9  2  0  0  0  0
  1  9  1  0  0  0  0
  6 10  1  0  0  0  0
 11 12  1  0  0  0  0
 13 14  2  0  0  0  0
 13 15  1  0  0  0  0
 15 16  2  0  0  0  0
 16 17  1  0  0  0  0
 17 18  2  0  0  0  0
 18 19  1  0  0  0  0
 19 20  2  0  0  0  0
 15 20  1  0  0  0  0
 12 13  1  0  0  0  0
  7 11  1  0  0  0  0
M  END
>  <type>
systematic

$$$$
5-Bromo-2-[(2-hydroxy-1,2-diphenylethylidene)amino]benzoic acid
  Mrv2401 11012420012D          

 26 28  0  0  0  0            999 V2000
    2.8579   -2.4750    0.0000 C   0  0  0  0  0  0  0  0  0  0  0  0
    2.8579   -1.6500    0.0000 C   0  0  0  0  0  0  0  0  0  0  0  0
    2.1434   -1.2375    0.0000 O   0  0  0  0  0  0  0  0  0  0  0  0
    3.5724   -1.2375    0.0000 O   0  0  0  0  0  0  0  0  0  0  0  0
    3.5724   -2.8875    0.0000 C   0  0  0  0  0  0  0  0  0  0  0  0
    3.5724   -3.7125    0.0000 C   0  0  0  0  0  0  0  0  0  0  0  0
    2.8579   -4.1250    0.0000 C   0  0  0  0  0  0  0  0  0  0  0  0
    2.1434   -3.7125    0.0000 C   0  0  0  0  0  0  0  0  0  0  0  0
    2.1434   -2.8875    0.0000 C   0  0  0  0  0  0  0  0  0  0  0  0
    4.2868   -2.4750    0.0000 N   0  0  0  0  0  0  0  0  0  0  0  0
    5.0013   -2.8875    0.0000 C   0  0  0  0  0  0  0  0  0  0  0  0
    5.7158   -2.4750    0.0000 C   0  0  0  0  0  0  0  0  0  0  0  0
    5.0013   -3.7125    0.0000 C   0  0  0  0  0  0  0  0  0  0  0  0
    5.7158   -4.1250    0.0000 C   0  0  0  0  0  0  0  0  0  0  0  0
    5.7158   -4.9500    0.0000 C   0  0  0  0  0  0  0  0  0  0  0  0
    5.0013   -5.3625    0.0000 C   0  0  0  0  0  0  0  0  0  0  0  0
    4.2868   -4.9500    0.0000 C   0  0  0  0  0  0  0  0  0  0  0  0
    4.2868   -4.1250    0.0000 C   0  0  0  0  0  0  0  0  0  0  0  0
    6.4302   -2.8875    0.0000 C   0  0  0  0  0  0  0  0  0  0  0  0
    7.1447   -2.4750    0.0000 C   0  0  0  0  0  0  0  0  0  0  0  0
    7.8592   -2.8875    0.0000 C   0  0  0  0  0  0  0  0  0  0  0  0
    7.8592   -3.7125    0.0000 C   0  0  0  0  0  0  0  0  0  0  0  0
    7.1447   -4.1250    0.0000 C   0  0  0  0  0  0  0  0  0  0  0  0
    6.4302   -3.7125    0.0000 C   0  0  0  0  0  0  0  0  0  0  0  0
    5.7158   -1.6500    0.0000 O   0  0  0  0  0  0  0  0  0  0  0  0
    1.4289   -4.1250    0.0000 Br  0  0  0  0  0  0  0  0  0  0  0  0
  1  2  1  0  0  0  0
  2  3  1  0  0  0  0
  2  4  2  0  0  0  0
  1  5  2  0  0  0  0
  5  6  1  0  0  0  0
  6  7  2  0  0  0  0
  7  8  1  0  0  0  0
  8  9  2  0  0  0  0
  1  9  1  0  0  0  0
 11 12  1  0  0  0  0
 13 14  2  0  0  0  0
 14 15  1  0  0  0  0
 15 16  2  0  0  0  0
 16 17  1  0  0  0  0
 17 18  2  0  0  0  0
 13 18  1  0  0  0  0
 11 13  1  0  0  0  0
 19 20  2  0  0  0  0
 20 21  1  0  0  0  0
 21 22  2  0  0  0  0
 22 23  1  0  0  0  0
 23 24  2  0  0  0  0
 19 24  1  0  0  0  0
 12 19  1  0  0  0  0
 12 25  1  0  0  0  0
 10 11  2  0  0  0  0
 10  5  1  4  0  0  0
  8 26  1  0  0  0  0
M  END
>  <type>
systematic

$$$$
(4S)-4-(Acetylthio)-L-proline 2-(3-carboxyphenyl)hydrazide
  Mrv2401 11012420022D          

 22 23  0  0  1  0            999 V2000
    3.4186   -3.0215    0.0000 N   0  0  0  0  0  0  0  0  0  0  0  0
    3.1637   -3.8062    0.0000 C   0  0  0  0  0  0  0  0  0  0  0  0
    2.3387   -3.8062    0.0000 C   0  0  2  0  0  0  0  0  0  0  0  0
    2.0837   -3.0215    0.0000 C   0  0  0  0  0  0  0  0  0  0  0  0
    2.7512   -2.5366    0.0000 C   0  0  1  0  0  0  0  0  0  0  0  0
    2.7512   -1.7116    0.0000 C   0  0  0  0  0  0  0  0  0  0  0  0
    2.0367   -1.2991    0.0000 O   0  0  0  0  0  0  0  0  0  0  0  0
    3.4656   -0.4741    0.0000 N   0  0  0  0  0  0  0  0  0  0  0  0
    3.4656   -1.2991    0.0000 N   0  0  0  0  0  0  0  0  0  0  0  0
    4.1801   -0.0616    0.0000 C   0  0  0  0  0  0  0  0  0  0  0  0
    4.1801    0.7634    0.0000 C   0  0  0  0  0  0  0  0  0  0  0  0
    4.8946    1.1759    0.0000 C   0  0  0  0  0  0  0  0  0  0  0  0
    5.6091    0.7634    0.0000 C   0  0  0  0  0  0  0  0  0  0  0  0
    5.6091   -0.0616    0.0000 C   0  0  0  0  0  0  0  0  0  0  0  0
    4.8946   -0.4741    0.0000 C   0  0  0  0  0  0  0  0  0  0  0  0
    4.8946    2.0009    0.0000 C   0  0  0  0  0  0  0  0  0  0  0  0
    5.6091    2.4134    0.0000 O   0  0  0  0  0  0  0  0  0  0  0  0
    4.1801    2.4134    0.0000 O   0  0  0  0  0  0  0  0  0  0  0  0
    1.8538   -4.4736    0.0000 S   0  0  0  0  0  0  0  0  0  0  0  0
    1.0333   -4.3874    0.0000 C   0  0  0  0  0  0  0  0  0  0  0  0
    0.5484   -5.0548    0.0000 O   0  0  0  0  0  0  0  0  0  0  0  0
    0.6977   -3.6337    0.0000 C   0  0  0  0  0  0  0  0  0  0  0  0
  1  2  1  0  0  0  0
  3  2  1  0  0  0  0
  3  4  1  0  0  0  0
  5  4  1  0  0  0  0
  5  1  1  0  0  0  0
  5  6  1  1  0  0  0
  6  7  2  0  0  0  0
  8  9  1  0  0  0  0
 10 11  2  0  0  0  0
 11 12  1  0  0  0  0
 12 13  2  0  0  0  0
 13 14  1  0  0  0  0
 14 15  2  0  0  0  0
 10 15  1  0  0  0  0
 16 17  1  0  0  0  0
 16 18  2  0  0  0  0
 12 16  1  0  0  0  0
  8 10  1  0  0  0  0
  6  9  1  0  0  0  0
 20 21  2  0  0  0  0
 20 22  1  0  0  0  0
 19 20  1  0  0  0  0
  3 19  1  1  0  0  0
M  END
>  <type>
systematic

$$$$
4-[[1-Ethoxy-2-oxo-2-(2,3,5,6-tetramethyl-4-nitrophenyl)ethyl]amino]benzoic acid
  Mrv2401 11012420032D          

 29 30  0  0  0  0            999 V2000
    3.5724    0.4125    0.0000 C   0  0  0  0  0  0  0  0  0  0  0  0
    4.2868    0.8250    0.0000 C   0  0  0  0  0  0  0  0  0  0  0  0
    5.0013    0.4125    0.0000 O   0  0  0  0  0  0  0  0  0  0  0  0
    4.2868    1.6500    0.0000 O   0  0  0  0  0  0  0  0  0  0  0  0
    3.5724   -0.4125    0.0000 C   0  0  0  0  0  0  0  0  0  0  0  0
    2.8579   -0.8250    0.0000 C   0  0  0  0  0  0  0  0  0  0  0  0
    2.1434   -0.4125    0.0000 C   0  0  0  0  0  0  0  0  0  0  0  0
    2.1434    0.4125    0.0000 C   0  0  0  0  0  0  0  0  0  0  0  0
    2.8579    0.8250    0.0000 C   0  0  0  0  0  0  0  0  0  0  0  0
    1.4289   -0.8250    0.0000 N   0  0  0  0  0  0  0  0  0  0  0  0
    1.4289   -1.6500    0.0000 C   0  0  0  0  0  0  0  0  0  0  0  0
    0.7145   -2.0625    0.0000 C   0  0  0  0  0  0  0  0  0  0  0  0
    0.0000   -1.6500    0.0000 C   0  0  0  0  0  0  0  0  0  0  0  0
   -0.7145   -2.0625    0.0000 C   0  0  0  0  0  0  0  0  0  0  0  0
   -1.4289   -1.6500    0.0000 C   0  0  0  0  0  0  0  0  0  0  0  0
   -1.4289   -0.8250    0.0000 C   0  0  0  0  0  0  0  0  0  0  0  0
   -0.7145   -0.4125    0.0000 C   0  0  0  0  0  0  0  0  0  0  0  0
    0.0000   -0.8250    0.0000 C   0  0  0  0  0  0  0  0  0  0  0  0
   -2.1434   -0.4125    0.0000 N   0  3  0  0  0  0  0  0  0  0  0  0
   -2.8579   -0.8250    0.0000 O   0  0  0  0  0  0  0  0  0  0  0  0
   -2.1434    0.4125    0.0000 O   0  5  0  0  0  0  0  0  0  0  0  0
   -0.7145   -2.8875    0.0000 C   0  0  0  0  0  0  0  0  0  0  0  0
   -2.1434   -2.0625    0.0000 C   0  0  0  0  0  0  0  0  0  0  0  0
   -0.7145    0.4125    0.0000 C   0  0  0  0  0  0  0  0  0  0  0  0
    0.7145   -0.4125    0.0000 C   0  0  0  0  0  0  0  0  0  0  0  0
    0.7145   -2.8875    0.0000 O   0  0  0  0  0  0  0  0  0  0  0  0
    2.1434   -2.0625    0.0000 O   0  0  0  0  0  0  0  0  0  0  0  0
    2.8579   -1.6500    0.0000 C   0  0  0  0  0  0  0  0  0  0  0  0
    3.5724   -2.0625    0.0000 C   0  0  0  0  0  0  0  0  0  0  0  0
  1  2  1  0  0  0  0
  2  3  1  0  0  0  0
  2  4  2  0  0  0  0
  1  5  2  0  0  0  0
  5  6  1  0  0  0  0
  6  7  2  0  0  0  0
  7  8  1  0  0  0  0
  8  9  2  0  0  0  0
  1  9  1  0  0  0  0
 11 12  1  0  0  0  0
 13 14  2  0  0  0  0
 14 15  1  0  0  0  0
 15 16  2  0  0  0  0
 16 17  1  0  0  0  0
 17 18  2  0  0  0  0
 13 18  1  0  0  0  0
 19 20  2  0  0  0  0
 19 21  1  0  0  0  0
 16 19  1  0  0  0  0
 14 22  1  0  0  0  0
 15 23  1  0  0  0  0
 17 24  1  0  0  0  0
 18 25  1  0  0  0  0
 12 13  1  0  0  0  0
 12 26  2  0  0  0  0
 28 29  1  0  0  0  0
 27 28  1  0  0  0  0
 11 27  1  0  0  0  0
 10 11  1  0  0  0  0
  7 10  1  0  0  0  0
M  CHG  2  19   1  21  -1
M  END
>  <type>
systematic

$$$$
5-Chloro-2-[[2-(4-methoxyphenyl)-2-oxoacetyl]amino]benzoic acid
  Mrv2401 11012420032D          

 23 24  0  0  0  0            999 V2000
    2.8579   -2.4750    0.0000 C   0  0  0  0  0  0  0  0  0  0  0  0
    2.8579   -1.6500    0.0000 C   0  0  0  0  0  0  0  0  0  0  0  0
    2.1434   -1.2375    0.0000 O   0  0  0  0  0  0  0  0  0  0  0  0
    3.5724   -1.2375    0.0000 O   0  0  0  0  0  0  0  0  0  0  0  0
    3.5724   -2.8875    0.0000 C   0  0  0  0  0  0  0  0  0  0  0  0
    3.5724   -3.7125    0.0000 C   0  0  0  0  0  0  0  0  0  0  0  0
    2.8579   -4.1250    0.0000 C   0  0  0  0  0  0  0  0  0  0  0  0
    2.1434   -3.7125    0.0000 C   0  0  0  0  0  0  0  0  0  0  0  0
    2.1434   -2.8875    0.0000 C   0  0  0  0  0  0  0  0  0  0  0  0
    4.2868   -2.4750    0.0000 N   0  0  0  0  0  0  0  0  0  0  0  0
    5.0013   -2.8875    0.0000 C   0  0  0  0  0  0  0  0  0  0  0  0
    5.0013   -3.7125    0.0000 O   0  0  0  0  0  0  0  0  0  0  0  0
    5.7158   -2.4750    0.0000 C   0  0  0  0  0  0  0  0  0  0  0  0
    5.7158   -1.6500    0.0000 O   0  0  0  0  0  0  0  0  0  0  0  0
    6.4302   -2.8875    0.0000 C   0  0  0  0  0  0  0  0  0  0  0  0
    7.1447   -2.4750    0.0000 C   0  0  0  0  0  0  0  0  0  0  0  0
    7.8592   -2.8875    0.0000 C   0  0  0  0  0  0  0  0  0  0  0  0
    7.8592   -3.7125    0.0000 C   0  0  0  0  0  0  0  0  0  0  0  0
    7.1447   -4.1250    0.0000 C   0  0  0  0  0  0  0  0  0  0  0  0
    6.4302   -3.7125    0.0000 C   0  0  0  0  0  0  0  0  0  0  0  0
    8.5737   -4.1250    0.0000 O   0  0  0  0  0  0  0  0  0  0  0  0
    8.5737   -4.9500    0.0000 C   0  0  0  0  0  0  0  0  0  0  0  0
    1.4289   -4.1250    0.0000 Cl  0  0  0  0  0  0  0  0  0  0  0  0
  1  2  1  0  0  0  0
  2  3  1  0  0  0  0
  2  4  2  0  0  0  0
  1  5  2  0  0  0  0
  5  6  1  0  0  0  0
  6  7  2  0  0  0  0
  7  8  1  0  0  0  0
  8  9  2  0  0  0  0
  1  9  1  0  0  0  0
 11 12  2  0  0  0  0
 11 13  1  0  0  0  0
 13 14  2  0  0  0  0
 15 16  2  0  0  0  0
 16 17  1  0  0  0  0
 17 18  2  0  0  0  0
 18 19  1  0  0  0  0
 19 20  2  0  0  0  0
 15 20  1  0  0  0  0
 21 22  1  0  0  0  0
 18 21  1  0  0  0  0
 13 15  1  0  0  0  0
 10 11  1  0  0  0  0
  5 10  1  0  0  0  0
  8 23  1  0  0  0  0
M  END
>  <type>
systematic

$$$$
4-[[2-(4-Chloro-2-nitrophenyl)-1-ethoxy-2-oxoethyl]amino]benzoic acid
  Mrv2401 11012420042D          

 26 27  0  0  0  0            999 V2000
    0.7145   -4.5375    0.0000 C   0  0  0  0  0  0  0  0  0  0  0  0
    0.7145   -5.3625    0.0000 C   0  0  0  0  0  0  0  0  0  0  0  0
    1.4289   -5.7750    0.0000 O   0  0  0  0  0  0  0  0  0  0  0  0
    0.0000   -5.7750    0.0000 O   0  0  0  0  0  0  0  0  0  0  0  0
    0.0000   -4.1250    0.0000 C   0  0  0  0  0  0  0  0  0  0  0  0
    0.0000   -3.3000    0.0000 C   0  0  0  0  0  0  0  0  0  0  0  0
    0.7145   -2.8875    0.0000 C   0  0  0  0  0  0  0  0  0  0  0  0
    1.4289   -3.3000    0.0000 C   0  0  0  0  0  0  0  0  0  0  0  0
    1.4289   -4.1250    0.0000 C   0  0  0  0  0  0  0  0  0  0  0  0
    0.7145   -2.0625    0.0000 N   0  0  0  0  0  0  0  0  0  0  0  0
    1.4289   -1.6500    0.0000 C   0  0  0  0  0  0  0  0  0  0  0  0
    1.4289   -0.8250    0.0000 C   0  0  0  0  0  0  0  0  0  0  0  0
    0.7145   -0.4125    0.0000 O   0  0  0  0  0  0  0  0  0  0  0  0
    2.1434   -2.0625    0.0000 O   0  0  0  0  0  0  0  0  0  0  0  0
    2.8579   -1.6500    0.0000 C   0  0  0  0  0  0  0  0  0  0  0  0
    3.5724   -2.0625    0.0000 C   0  0  0  0  0  0  0  0  0  0  0  0
    2.1434   -0.4125    0.0000 C   0  0  0  0  0  0  0  0  0  0  0  0
    2.1434    0.4125    0.0000 C   0  0  0  0  0  0  0  0  0  0  0  0
    2.8579    0.8250    0.0000 C   0  0  0  0  0  0  0  0  0  0  0  0
    3.5724    0.4125    0.0000 C   0  0  0  0  0  0  0  0  0  0  0  0
    3.5724   -0.4125    0.0000 C   0  0  0  0  0  0  0  0  0  0  0  0
    2.8579   -0.8250    0.0000 C   0  0  0  0  0  0  0  0  0  0  0  0
    1.4289    0.8250    0.0000 N   0  3  0  0  0  0  0  0  0  0  0  0
    1.4289    1.6500    0.0000 O   0  0  0  0  0  0  0  0  0  0  0  0
    0.7145    0.4125    0.0000 O   0  5  0  0  0  0  0  0  0  0  0  0
    4.2868    0.8250    0.0000 Cl  0  0  0  0  0  0  0  0  0  0  0  0
  1  2  1  0  0  0  0
  2  3  1  0  0  0  0
  2  4  2  0  0  0  0
  1  5  2  0  0  0  0
  5  6  1  0  0  0  0
  6  7  2  0  0  0  0
  7  8  1  0  0  0  0
  8  9  2  0  0  0  0
  1  9  1  0  0  0  0
 11 12  1  0  0  0  0
 12 13  2  0  0  0  0
 15 16  1  0  0  0  0
 14 15  1  0  0  0  0
 11 14  1  0  0  0  0
 17 18  2  0  0  0  0
 18 19  1  0  0  0  0
 19 20  2  0  0  0  0
 20 21  1  0  0  0  0
 21 22  2  0  0  0  0
 17 22  1  0  0  0  0
 23 24  2  0  0  0  0
 23 25  1  0  0  0  0
 18 23  1  0  0  0  0
 20 26  1  0  0  0  0
 12 17  1  0  0  0  0
 10 11  1  0  0  0  0
  7 10  1  0  0  0  0
M  CHG  2  23   1  25  -1
M  END
>  <type>
systematic

$$$$
3-Amino-4-[2-(4-methoxybenzoyl)hydrazinyl]benzoic acid
  Mrv2401 11012420042D          

 22 23  0  0  0  0            999 V2000
    2.8579   -2.4750    0.0000 C   0  0  0  0  0  0  0  0  0  0  0  0
    2.8579   -1.6500    0.0000 C   0  0  0  0  0  0  0  0  0  0  0  0
    3.5724   -1.2375    0.0000 O   0  0  0  0  0  0  0  0  0  0  0  0
    2.1434   -1.2375    0.0000 O   0  0  0  0  0  0  0  0  0  0  0  0
    3.5724   -2.8875    0.0000 C   0  0  0  0  0  0  0  0  0  0  0  0
    3.5724   -3.7125    0.0000 C   0  0  0  0  0  0  0  0  0  0  0  0
    2.8579   -4.1250    0.0000 C   0  0  0  0  0  0  0  0  0  0  0  0
    2.1434   -3.7125    0.0000 C   0  0  0  0  0  0  0  0  0  0  0  0
    2.1434   -2.8875    0.0000 C   0  0  0  0  0  0  0  0  0  0  0  0
    2.8579   -4.9500    0.0000 N   0  0  0  0  0  0  0  0  0  0  0  0
    2.1434   -5.3625    0.0000 N   0  0  0  0  0  0  0  0  0  0  0  0
    2.1434   -6.1875    0.0000 C   0  0  0  0  0  0  0  0  0  0  0  0
    2.8579   -6.6000    0.0000 O   0  0  0  0  0  0  0  0  0  0  0  0
    1.4289   -6.6000    0.0000 C   0  0  0  0  0  0  0  0  0  0  0  0
    1.4289   -7.4250    0.0000 C   0  0  0  0  0  0  0  0  0  0  0  0
    0.7145   -7.8375    0.0000 C   0  0  0  0  0  0  0  0  0  0  0  0
    0.0000   -7.4250    0.0000 C   0  0  0  0  0  0  0  0  0  0  0  0
    0.0000   -6.6000    0.0000 C   0  0  0  0  0  0  0  0  0  0  0  0
    0.7145   -6.1875    0.0000 C   0  0  0  0  0  0  0  0  0  0  0  0
   -0.7145   -7.8375    0.0000 O   0  0  0  0  0  0  0  0  0  0  0  0
   -0.7145   -8.6625    0.0000 C   0  0  0  0  0  0  0  0  0  0  0  0
    4.2868   -4.1250    0.0000 N   0  0  0  0  0  0  0  0  0  0  0  0
  1  2  1  0  0  0  0
  2  3  1  0  0  0  0
  2  4  2  0  0  0  0
  1  5  2  0  0  0  0
  5  6  1  0  0  0  0
  6  7  2  0  0  0  0
  7  8  1  0  0  0  0
  8  9  2  0  0  0  0
  1  9  1  0  0  0  0
 10 11  1  0  0  0  0
 12 13  2  0  0  0  0
 12 14  1  0  0  0  0
 14 15  2  0  0  0  0
 15 16  1  0  0  0  0
 16 17  2  0  0  0  0
 17 18  1  0  0  0  0
 18 19  2  0  0  0  0
 14 19  1  0  0  0  0
 20 21  1  0  0  0  0
 17 20  1  0  0  0  0
 11 12  1  0  0  0  0
  7 10  1  0  0  0  0
  6 22  1  0  0  0  0
M  END
>  <type>
systematic

$$$$
Benzoic acid, 2- (2-benzoylhydrazinyl)-4-chloro-
  Mrv2401 11012420052D          

 20 21  0  0  0  0            999 V2000
    2.8579   -2.4750    0.0000 C   0  0  0  0  0  0  0  0  0  0  0  0
    2.8579   -1.6500    0.0000 C   0  0  0  0  0  0  0  0  0  0  0  0
    2.1434   -1.2375    0.0000 O   0  0  0  0  0  0  0  0  0  0  0  0
    3.5724   -1.2375    0.0000 O   0  0  0  0  0  0  0  0  0  0  0  0
    3.5724   -2.8875    0.0000 C   0  0  0  0  0  0  0  0  0  0  0  0
    3.5724   -3.7125    0.0000 C   0  0  0  0  0  0  0  0  0  0  0  0
    2.8579   -4.1250    0.0000 C   0  0  0  0  0  0  0  0  0  0  0  0
    2.1434   -3.7125    0.0000 C   0  0  0  0  0  0  0  0  0  0  0  0
    2.1434   -2.8875    0.0000 C   0  0  0  0  0  0  0  0  0  0  0  0
    2.8579   -4.9500    0.0000 Cl  0  0  0  0  0  0  0  0  0  0  0  0
    4.2868   -2.4750    0.0000 N   0  0  0  0  0  0  0  0  0  0  0  0
    5.0013   -2.8875    0.0000 N   0  0  0  0  0  0  0  0  0  0  0  0
    5.7158   -2.4750    0.0000 C   0  0  0  0  0  0  0  0  0  0  0  0
    5.7158   -1.6500    0.0000 O   0  0  0  0  0  0  0  0  0  0  0  0
    6.4302   -2.8875    0.0000 C   0  0  0  0  0  0  0  0  0  0  0  0
    7.1447   -2.4750    0.0000 C   0  0  0  0  0  0  0  0  0  0  0  0
    7.8592   -2.8875    0.0000 C   0  0  0  0  0  0  0  0  0  0  0  0
    7.8592   -3.7125    0.0000 C   0  0  0  0  0  0  0  0  0  0  0  0
    7.1447   -4.1250    0.0000 C   0  0  0  0  0  0  0  0  0  0  0  0
    6.4302   -3.7125    0.0000 C   0  0  0  0  0  0  0  0  0  0  0  0
  1  2  1  0  0  0  0
  2  3  1  0  0  0  0
  2  4  2  0  0  0  0
  1  5  2  0  0  0  0
  5  6  1  0  0  0  0
  6  7  2  0  0  0  0
  7  8  1  0  0  0  0
  8  9  2  0  0  0  0
  1  9  1  0  0  0  0
  7 10  1  0  0  0  0
 11 12  1  0  0  0  0
 13 14  2  0  0  0  0
 13 15  1  0  0  0  0
 15 16  2  0  0  0  0
 16 17  1  0  0  0  0
 17 18  2  0  0  0  0
 18 19  1  0  0  0  0
 19 20  2  0  0  0  0
 15 20  1  0  0  0  0
 12 13  1  0  0  0  0
  5 11  1  0  0  0  0
M  END
>  <type>
systematic

$$$$
3-[[2-[2-(Acetylamino)phenyl]-2-hydroxyacetyl]amino]benzoic acid
  Mrv2401 11012420052D          

 24 25  0  0  0  0            999 V2000
    2.8579   -2.4750    0.0000 C   0  0  0  0  0  0  0  0  0  0  0  0
    2.8579   -1.6500    0.0000 C   0  0  0  0  0  0  0  0  0  0  0  0
    2.1434   -1.2375    0.0000 O   0  0  0  0  0  0  0  0  0  0  0  0
    3.5724   -1.2375    0.0000 O   0  0  0  0  0  0  0  0  0  0  0  0
    3.5724   -2.8875    0.0000 C   0  0  0  0  0  0  0  0  0  0  0  0
    3.5724   -3.7125    0.0000 C   0  0  0  0  0  0  0  0  0  0  0  0
    2.8579   -4.1250    0.0000 C   0  0  0  0  0  0  0  0  0  0  0  0
    2.1434   -3.7125    0.0000 C   0  0  0  0  0  0  0  0  0  0  0  0
    2.1434   -2.8875    0.0000 C   0  0  0  0  0  0  0  0  0  0  0  0
    4.2868   -4.1250    0.0000 N   0  0  0  0  0  0  0  0  0  0  0  0
    4.2868   -4.9500    0.0000 C   0  0  0  0  0  0  0  0  0  0  0  0
    3.5724   -5.3625    0.0000 O   0  0  0  0  0  0  0  0  0  0  0  0
    5.0013   -5.3625    0.0000 C   0  0  0  0  0  0  0  0  0  0  0  0
    5.7158   -4.9500    0.0000 O   0  0  0  0  0  0  0  0  0  0  0  0
    5.0013   -6.1875    0.0000 C   0  0  0  0  0  0  0  0  0  0  0  0
    5.7158   -6.6000    0.0000 C   0  0  0  0  0  0  0  0  0  0  0  0
    5.7158   -7.4250    0.0000 C   0  0  0  0  0  0  0  0  0  0  0  0
    5.0013   -7.8375    0.0000 C   0  0  0  0  0  0  0  0  0  0  0  0
    4.2868   -7.4250    0.0000 C   0  0  0  0  0  0  0  0  0  0  0  0
    4.2868   -6.6000    0.0000 C   0  0  0  0  0  0  0  0  0  0  0  0
    6.4302   -6.1875    0.0000 N   0  0  0  0  0  0  0  0  0  0  0  0
    7.1447   -6.6000    0.0000 C   0  0  0  0  0  0  0  0  0  0  0  0
    7.8592   -6.1875    0.0000 O   0  0  0  0  0  0  0  0  0  0  0  0
    7.1447   -7.4250    0.0000 C   0  0  0  0  0  0  0  0  0  0  0  0
  1  2  1  0  0  0  0
  2  3  1  0  0  0  0
  2  4  2  0  0  0  0
  1  5  2  0  0  0  0
  5  6  1  0  0  0  0
  6  7  2  0  0  0  0
  7  8  1  0  0  0  0
  8  9  2  0  0  0  0
  1  9  1  0  0  0  0
 11 12  2  0  0  0  0
 11 13  1  0  0  0  0
 13 14  1  0  0  0  0
 15 16  2  0  0  0  0
 16 17  1  0  0  0  0
 17 18  2  0  0  0  0
 18 19  1  0  0  0  0
 19 20  2  0  0  0  0
 15 20  1  0  0  0  0
 22 23  2  0  0  0  0
 22 24  1  0  0  0  0
 21 22  1  0  0  0  0
 16 21  1  0  0  0  0
 13 15  1  0  0  0  0
 10 11  1  0  0  0  0
  6 10  1  0  0  0  0
M  END
>  <type>
systematic

$$$$
4-[[2-(5-Chloro-2-nitrophenyl)-1-ethoxy-2-oxoethyl]amino]benzoic acid
  Mrv2401 11012420062D          

 26 27  0  0  0  0            999 V2000
    0.7145   -4.5375    0.0000 C   0  0  0  0  0  0  0  0  0  0  0  0
    0.7145   -5.3625    0.0000 C   0  0  0  0  0  0  0  0  0  0  0  0
    1.4289   -5.7750    0.0000 O   0  0  0  0  0  0  0  0  0  0  0  0
    0.0000   -5.7750    0.0000 O   0  0  0  0  0  0  0  0  0  0  0  0
    0.0000   -4.1250    0.0000 C   0  0  0  0  0  0  0  0  0  0  0  0
    0.0000   -3.3000    0.0000 C   0  0  0  0  0  0  0  0  0  0  0  0
    0.7145   -2.8875    0.0000 C   0  0  0  0  0  0  0  0  0  0  0  0
    1.4289   -3.3000    0.0000 C   0  0  0  0  0  0  0  0  0  0  0  0
    1.4289   -4.1250    0.0000 C   0  0  0  0  0  0  0  0  0  0  0  0
    0.7145   -2.0625    0.0000 N   0  0  0  0  0  0  0  0  0  0  0  0
    1.4289   -1.6500    0.0000 C   0  0  0  0  0  0  0  0  0  0  0  0
    1.4289   -0.8250    0.0000 C   0  0  0  0  0  0  0  0  0  0  0  0
    0.7145   -0.4125    0.0000 O   0  0  0  0  0  0  0  0  0  0  0  0
    2.1434   -2.0625    0.0000 O   0  0  0  0  0  0  0  0  0  0  0  0
    2.8579   -1.6500    0.0000 C   0  0  0  0  0  0  0  0  0  0  0  0
    3.5724   -2.0625    0.0000 C   0  0  0  0  0  0  0  0  0  0  0  0
    2.1434   -0.4125    0.0000 C   0  0  0  0  0  0  0  0  0  0  0  0
    2.1434    0.4125    0.0000 C   0  0  0  0  0  0  0  0  0  0  0  0
    2.8579    0.8250    0.0000 C   0  0  0  0  0  0  0  0  0  0  0  0
    3.5724    0.4125    0.0000 C   0  0  0  0  0  0  0  0  0  0  0  0
    3.5724   -0.4125    0.0000 C   0  0  0  0  0  0  0  0  0  0  0  0
    2.8579   -0.8250    0.0000 C   0  0  0  0  0  0  0  0  0  0  0  0
    1.4289    0.8250    0.0000 N   0  3  0  0  0  0  0  0  0  0  0  0
    1.4289    1.6500    0.0000 O   0  0  0  0  0  0  0  0  0  0  0  0
    0.7145    0.4125    0.0000 O   0  5  0  0  0  0  0  0  0  0  0  0
    4.2868   -0.8250    0.0000 Cl  0  0  0  0  0  0  0  0  0  0  0  0
  1  2  1  0  0  0  0
  2  3  1  0  0  0  0
  2  4  2  0  0  0  0
  1  5  2  0  0  0  0
  5  6  1  0  0  0  0
  6  7  2  0  0  0  0
  7  8  1  0  0  0  0
  8  9  2  0  0  0  0
  1  9  1  0  0  0  0
 11 12  1  0  0  0  0
 12 13  2  0  0  0  0
 15 16  1  0  0  0  0
 14 15  1  0  0  0  0
 11 14  1  0  0  0  0
 17 18  2  0  0  0  0
 18 19  1  0  0  0  0
 19 20  2  0  0  0  0
 20 21  1  0  0  0  0
 21 22  2  0  0  0  0
 17 22  1  0  0  0  0
 23 24  2  0  0  0  0
 23 25  1  0  0  0  0
 18 23  1  0  0  0  0
 21 26  1  0  0  0  0
 12 17  1  0  0  0  0
 10 11  1  0  0  0  0
  7 10  1  0  0  0  0
M  CHG  2  23   1  25  -1
M  END
>  <type>
systematic

$$$$
3-Amino-4-[2-(3-methoxybenzoyl)hydrazinyl]benzoic acid
  Mrv2401 11012420072D          

 22 23  0  0  0  0            999 V2000
    2.8579   -2.4750    0.0000 C   0  0  0  0  0  0  0  0  0  0  0  0
    2.8579   -1.6500    0.0000 C   0  0  0  0  0  0  0  0  0  0  0  0
    2.1434   -1.2375    0.0000 O   0  0  0  0  0  0  0  0  0  0  0  0
    3.5724   -1.2375    0.0000 O   0  0  0  0  0  0  0  0  0  0  0  0
    3.5724   -2.8875    0.0000 C   0  0  0  0  0  0  0  0  0  0  0  0
    3.5724   -3.7125    0.0000 C   0  0  0  0  0  0  0  0  0  0  0  0
    2.8579   -4.1250    0.0000 C   0  0  0  0  0  0  0  0  0  0  0  0
    2.1434   -3.7125    0.0000 C   0  0  0  0  0  0  0  0  0  0  0  0
    2.1434   -2.8875    0.0000 C   0  0  0  0  0  0  0  0  0  0  0  0
    2.8579   -4.9500    0.0000 N   0  0  0  0  0  0  0  0  0  0  0  0
    2.1434   -5.3625    0.0000 N   0  0  0  0  0  0  0  0  0  0  0  0
    2.1434   -6.1875    0.0000 C   0  0  0  0  0  0  0  0  0  0  0  0
    2.8579   -6.6000    0.0000 O   0  0  0  0  0  0  0  0  0  0  0  0
    1.4289   -6.6000    0.0000 C   0  0  0  0  0  0  0  0  0  0  0  0
    1.4289   -7.4250    0.0000 C   0  0  0  0  0  0  0  0  0  0  0  0
    0.7145   -7.8375    0.0000 C   0  0  0  0  0  0  0  0  0  0  0  0
    0.0000   -7.4250    0.0000 C   0  0  0  0  0  0  0  0  0  0  0  0
    0.0000   -6.6000    0.0000 C   0  0  0  0  0  0  0  0  0  0  0  0
    0.7145   -6.1875    0.0000 C   0  0  0  0  0  0  0  0  0  0  0  0
    0.7145   -8.6625    0.0000 O   0  0  0  0  0  0  0  0  0  0  0  0
    1.4289   -9.0750    0.0000 C   0  0  0  0  0  0  0  0  0  0  0  0
    4.2868   -4.1250    0.0000 N   0  0  0  0  0  0  0  0  0  0  0  0
  1  2  1  0  0  0  0
  2  3  1  0  0  0  0
  2  4  2  0  0  0  0
  1  5  2  0  0  0  0
  5  6  1  0  0  0  0
  6  7  2  0  0  0  0
  7  8  1  0  0  0  0
  8  9  2  0  0  0  0
  1  9  1  0  0  0  0
 10 11  1  0  0  0  0
 12 13  2  0  0  0  0
 12 14  1  0  0  0  0
 14 15  2  0  0  0  0
 15 16  1  0  0  0  0
 16 17  2  0  0  0  0
 17 18  1  0  0  0  0
 18 19  2  0  0  0  0
 14 19  1  0  0  0  0
 20 21  1  0  0  0  0
 16 20  1  0  0  0  0
 11 12  1  0  0  0  0
  7 10  1  0  0  0  0
  6 22  1  0  0  0  0
M  END
>  <type>
systematic

$$$$
2-Hydroxy-4-[[2-(1H-indol-1-yl)-2-oxoethyl]amino]benzoic acid
  Mrv2401 11012420082D          

 23 25  0  0  0  0            999 V2000
   -2.5990   -3.6207    0.0000 C   0  0  0  0  0  0  0  0  0  0  0  0
   -3.4060   -3.7923    0.0000 C   0  0  0  0  0  0  0  0  0  0  0  0
   -3.6610   -4.5769    0.0000 O   0  0  0  0  0  0  0  0  0  0  0  0
   -3.9580   -3.1792    0.0000 O   0  0  0  0  0  0  0  0  0  0  0  0
   -2.3441   -2.8361    0.0000 C   0  0  0  0  0  0  0  0  0  0  0  0
   -1.5371   -2.6646    0.0000 C   0  0  0  0  0  0  0  0  0  0  0  0
   -0.9851   -3.2777    0.0000 C   0  0  0  0  0  0  0  0  0  0  0  0
   -1.2400   -4.0623    0.0000 C   0  0  0  0  0  0  0  0  0  0  0  0
   -2.0470   -4.2338    0.0000 C   0  0  0  0  0  0  0  0  0  0  0  0
   -0.1781   -3.1062    0.0000 N   0  0  0  0  0  0  0  0  0  0  0  0
    0.0768   -2.3215    0.0000 C   0  0  0  0  0  0  0  0  0  0  0  0
    0.8838   -2.1500    0.0000 C   0  0  0  0  0  0  0  0  0  0  0  0
    1.4358   -2.7631    0.0000 O   0  0  0  0  0  0  0  0  0  0  0  0
    0.6538   -0.6979    0.0000 C   0  0  0  0  0  0  0  0  0  0  0  0
    1.1387   -0.0305    0.0000 C   0  0  0  0  0  0  0  0  0  0  0  0
    1.9233   -0.2854    0.0000 C   0  0  0  0  0  0  0  0  0  0  0  0
    2.6378    0.1271    0.0000 C   0  0  0  0  0  0  0  0  0  0  0  0
    3.3523   -0.2854    0.0000 C   0  0  0  0  0  0  0  0  0  0  0  0
    3.3523   -1.1104    0.0000 C   0  0  0  0  0  0  0  0  0  0  0  0
    2.6378   -1.5229    0.0000 C   0  0  0  0  0  0  0  0  0  0  0  0
    1.9233   -1.1104    0.0000 C   0  0  0  0  0  0  0  0  0  0  0  0
    1.1387   -1.3654    0.0000 N   0  0  0  0  0  0  0  0  0  0  0  0
   -2.8961   -2.2230    0.0000 O   0  0  0  0  0  0  0  0  0  0  0  0
  1  2  1  0  0  0  0
  2  3  1  0  0  0  0
  2  4  2  0  0  0  0
  1  5  2  0  0  0  0
  5  6  1  0  0  0  0
  6  7  2  0  0  0  0
  7  8  1  0  0  0  0
  8  9  2  0  0  0  0
  1  9  1  0  0  0  0
 11 12  1  0  0  0  0
 12 13  2  0  0  0  0
 14 15  2  0  0  0  0
 15 16  1  0  0  0  0
 16 17  1  0  0  0  0
 17 18  2  0  0  0  0
 18 19  1  0  0  0  0
 19 20  2  0  0  0  0
 20 21  1  0  0  0  0
 16 21  2  0  0  0  0
 21 22  1  0  0  0  0
 14 22  1  0  0  0  0
 12 22  1  0  0  0  0
 10 11  1  0  0  0  0
  7 10  1  0  0  0  0
  5 23  1  0  0  0  0
M  END
>  <type>
systematic

$$$$
3,5-Dinitrobenzoic acid 2- (4-carboxyphenyl)hydrazide
  Mrv2401 11012420082D          

 25 26  0  0  0  0            999 V2000
   -1.4289   -2.4750    0.0000 C   0  0  0  0  0  0  0  0  0  0  0  0
   -1.4289   -1.6500    0.0000 C   0  0  0  0  0  0  0  0  0  0  0  0
   -0.7145   -1.2375    0.0000 O   0  0  0  0  0  0  0  0  0  0  0  0
   -0.7145   -2.8875    0.0000 C   0  0  0  0  0  0  0  0  0  0  0  0
   -0.7145   -3.7125    0.0000 C   0  0  0  0  0  0  0  0  0  0  0  0
   -1.4289   -4.1250    0.0000 C   0  0  0  0  0  0  0  0  0  0  0  0
   -2.1434   -3.7125    0.0000 C   0  0  0  0  0  0  0  0  0  0  0  0
   -2.1434   -2.8875    0.0000 C   0  0  0  0  0  0  0  0  0  0  0  0
   -2.1434   -0.4125    0.0000 N   0  0  0  0  0  0  0  0  0  0  0  0
   -2.1434   -1.2375    0.0000 N   0  0  0  0  0  0  0  0  0  0  0  0
   -2.8579   -0.0000    0.0000 C   0  0  0  0  0  0  0  0  0  0  0  0
   -3.5724   -0.4125    0.0000 C   0  0  0  0  0  0  0  0  0  0  0  0
   -4.2868   -0.0000    0.0000 C   0  0  0  0  0  0  0  0  0  0  0  0
   -4.2868    0.8250    0.0000 C   0  0  0  0  0  0  0  0  0  0  0  0
   -3.5724    1.2375    0.0000 C   0  0  0  0  0  0  0  0  0  0  0  0
   -2.8579    0.8250    0.0000 C   0  0  0  0  0  0  0  0  0  0  0  0
   -5.0013    1.2375    0.0000 C   0  0  0  0  0  0  0  0  0  0  0  0
   -5.0013    2.0625    0.0000 O   0  0  0  0  0  0  0  0  0  0  0  0
   -5.7158    0.8250    0.0000 O   0  0  0  0  0  0  0  0  0  0  0  0
    0.0000   -4.1250    0.0000 N   0  3  0  0  0  0  0  0  0  0  0  0
    0.7145   -3.7125    0.0000 O   0  0  0  0  0  0  0  0  0  0  0  0
   -0.0000   -4.9500    0.0000 O   0  5  0  0  0  0  0  0  0  0  0  0
   -2.8579   -4.1250    0.0000 N   0  3  0  0  0  0  0  0  0  0  0  0
   -3.5724   -3.7125    0.0000 O   0  0  0  0  0  0  0  0  0  0  0  0
   -2.8579   -4.9500    0.0000 O   0  5  0  0  0  0  0  0  0  0  0  0
  1  2  1  0  0  0  0
  2  3  2  0  0  0  0
  1  4  2  0  0  0  0
  4  5  1  0  0  0  0
  5  6  2  0  0  0  0
  6  7  1  0  0  0  0
  7  8  2  0  0  0  0
  1  8  1  0  0  0  0
  9 10  1  0  0  0  0
 11 12  2  0  0  0  0
 12 13  1  0  0  0  0
 13 14  2  0  0  0  0
 14 15  1  0  0  0  0
 15 16  2  0  0  0  0
 11 16  1  0  0  0  0
 17 18  1  0  0  0  0
 17 19  2  0  0  0  0
 14 17  1  0  0  0  0
  9 11  1  0  0  0  0
  2 10  1  0  0  0  0
 20 21  2  0  0  0  0
 20 22  1  0  0  0  0
  5 20  1  0  0  0  0
 23 24  2  0  0  0  0
 23 25  1  0  0  0  0
  7 23  1  0  0  0  0
M  CHG  4  20   1  22  -1  23   1  25  -1
M  END
>  <type>
systematic

$$$$
3-Amino-4-[2-[4-(dimethylamino)benzoyl]hydrazinyl]benzoic acid
  Mrv2401 11012420092D          

 23 24  0  0  0  0            999 V2000
    2.8579   -2.4750    0.0000 C   0  0  0  0  0  0  0  0  0  0  0  0
    2.8579   -1.6500    0.0000 C   0  0  0  0  0  0  0  0  0  0  0  0
    3.5724   -1.2375    0.0000 O   0  0  0  0  0  0  0  0  0  0  0  0
    2.1434   -1.2375    0.0000 O   0  0  0  0  0  0  0  0  0  0  0  0
    3.5724   -2.8875    0.0000 C   0  0  0  0  0  0  0  0  0  0  0  0
    3.5724   -3.7125    0.0000 C   0  0  0  0  0  0  0  0  0  0  0  0
    2.8579   -4.1250    0.0000 C   0  0  0  0  0  0  0  0  0  0  0  0
    2.1434   -3.7125    0.0000 C   0  0  0  0  0  0  0  0  0  0  0  0
    2.1434   -2.8875    0.0000 C   0  0  0  0  0  0  0  0  0  0  0  0
    2.8579   -4.9500    0.0000 N   0  0  0  0  0  0  0  0  0  0  0  0
    2.1434   -5.3625    0.0000 N   0  0  0  0  0  0  0  0  0  0  0  0
    2.1434   -6.1875    0.0000 C   0  0  0  0  0  0  0  0  0  0  0  0
    2.8579   -6.6000    0.0000 O   0  0  0  0  0  0  0  0  0  0  0  0
    1.4289   -6.6000    0.0000 C   0  0  0  0  0  0  0  0  0  0  0  0
    1.4289   -7.4250    0.0000 C   0  0  0  0  0  0  0  0  0  0  0  0
    0.7145   -7.8375    0.0000 C   0  0  0  0  0  0  0  0  0  0  0  0
    0.0000   -7.4250    0.0000 C   0  0  0  0  0  0  0  0  0  0  0  0
    0.0000   -6.6000    0.0000 C   0  0  0  0  0  0  0  0  0  0  0  0
    0.7145   -6.1875    0.0000 C   0  0  0  0  0  0  0  0  0  0  0  0
   -0.7145   -7.8375    0.0000 N   0  0  0  0  0  0  0  0  0  0  0  0
   -0.7145   -8.6625    0.0000 C   0  0  0  0  0  0  0  0  0  0  0  0
   -1.4289   -7.4250    0.0000 C   0  0  0  0  0  0  0  0  0  0  0  0
    4.2868   -4.1250    0.0000 N   0  0  0  0  0  0  0  0  0  0  0  0
  1  2  1  0  0  0  0
  2  3  1  0  0  0  0
  2  4  2  0  0  0  0
  1  5  2  0  0  0  0
  5  6  1  0  0  0  0
  6  7  2  0  0  0  0
  7  8  1  0  0  0  0
  8  9  2  0  0  0  0
  1  9  1  0  0  0  0
 10 11  1  0  0  0  0
 12 13  2  0  0  0  0
 12 14  1  0  0  0  0
 14 15  2  0  0  0  0
 15 16  1  0  0  0  0
 16 17  2  0  0  0  0
 17 18  1  0  0  0  0
 18 19  2  0  0  0  0
 14 19  1  0  0  0  0
 20 21  1  0  0  0  0
 20 22  1  0  0  0  0
 17 20  1  0  0  0  0
 11 12  1  0  0  0  0
  7 10  1  0  0  0  0
  6 23  1  0  0  0  0
M  END
>  <type>
systematic

$$$$
4-[[2-[4-[[(2Z)-3-Carboxy-1-oxo-2-propen-1-yl]amino]phenyl]-2-oxoethyl]amino]-2-hydroxybenzoic acid
  Mrv2401 11012420102D          

 28 29  0  0  0  0            999 V2000
    2.8579   -2.4750    0.0000 C   0  0  0  0  0  0  0  0  0  0  0  0
    2.8579   -1.6500    0.0000 C   0  0  0  0  0  0  0  0  0  0  0  0
    2.1434   -1.2375    0.0000 O   0  0  0  0  0  0  0  0  0  0  0  0
    3.5724   -1.2375    0.0000 O   0  0  0  0  0  0  0  0  0  0  0  0
    3.5724   -2.8875    0.0000 C   0  0  0  0  0  0  0  0  0  0  0  0
    3.5724   -3.7125    0.0000 C   0  0  0  0  0  0  0  0  0  0  0  0
    2.8579   -4.1250    0.0000 C   0  0  0  0  0  0  0  0  0  0  0  0
    2.1434   -3.7125    0.0000 C   0  0  0  0  0  0  0  0  0  0  0  0
    2.1434   -2.8875    0.0000 C   0  0  0  0  0  0  0  0  0  0  0  0
    4.2868   -2.4750    0.0000 O   0  0  0  0  0  0  0  0  0  0  0  0
    2.8579   -4.9500    0.0000 N   0  0  0  0  0  0  0  0  0  0  0  0
    2.1434   -5.3625    0.0000 C   0  0  0  0  0  0  0  0  0  0  0  0
    2.1434   -6.1875    0.0000 C   0  0  0  0  0  0  0  0  0  0  0  0
    2.8579   -6.6000    0.0000 O   0  0  0  0  0  0  0  0  0  0  0  0
    1.4289   -6.6000    0.0000 C   0  0  0  0  0  0  0  0  0  0  0  0
    1.4289   -7.4250    0.0000 C   0  0  0  0  0  0  0  0  0  0  0  0
    0.7145   -7.8375    0.0000 C   0  0  0  0  0  0  0  0  0  0  0  0
    0.0000   -7.4250    0.0000 C   0  0  0  0  0  0  0  0  0  0  0  0
    0.0000   -6.6000    0.0000 C   0  0  0  0  0  0  0  0  0  0  0  0
    0.7145   -6.1875    0.0000 C   0  0  0  0  0  0  0  0  0  0  0  0
   -0.7145   -7.8375    0.0000 N   0  0  0  0  0  0  0  0  0  0  0  0
   -0.7145   -8.6625    0.0000 C   0  0  0  0  0  0  0  0  0  0  0  0
   -1.4289   -9.0750    0.0000 C   0  0  0  0  0  0  0  0  0  0  0  0
   -1.4289   -9.9000    0.0000 C   0  0  0  0  0  0  0  0  0  0  0  0
   -0.0000   -9.0750    0.0000 O   0  0  0  0  0  0  0  0  0  0  0  0
   -0.7145  -10.3125    0.0000 C   0  0  0  0  0  0  0  0  0  0  0  0
   -0.7145  -11.1375    0.0000 O   0  0  0  0  0  0  0  0  0  0  0  0
   -0.0000   -9.9000    0.0000 O   0  0  0  0  0  0  0  0  0  0  0  0
  1  2  1  0  0  0  0
  2  3  1  0  0  0  0
  2  4  2  0  0  0  0
  1  5  2  0  0  0  0
  5  6  1  0  0  0  0
  6  7  2  0  0  0  0
  7  8  1  0  0  0  0
  8  9  2  0  0  0  0
  1  9  1  0  0  0  0
  5 10  1  0  0  0  0
 12 13  1  0  0  0  0
 13 14  2  0  0  0  0
 15 16  2  0  0  0  0
 16 17  1  0  0  0  0
 17 18  2  0  0  0  0
 18 19  1  0  0  0  0
 19 20  2  0  0  0  0
 15 20  1  0  0  0  0
 22 23  1  0  0  0  0
 23 24  2  0  0  0  0
 22 25  2  0  0  0  0
 26 27  1  0  0  0  0
 26 28  2  0  0  0  0
 24 26  1  0  0  0  0
 21 22  1  0  0  0  0
 18 21  1  0  0  0  0
 13 15  1  0  0  0  0
 11 12  1  0  0  0  0
  7 11  1  0  0  0  0
M  END
>  <type>
systematic

$$$$
4-[[2-(2-Dibenzofuranyl)-1-hydroxy-2-oxoethyl]amino]benzoic acid
  Mrv2401 11012420102D          

 27 30  0  0  0  0            999 V2000
   -4.1695    1.5657    0.0000 C   0  0  0  0  0  0  0  0  0  0  0  0
   -4.9765    1.3941    0.0000 C   0  0  0  0  0  0  0  0  0  0  0  0
   -5.2314    0.6095    0.0000 O   0  0  0  0  0  0  0  0  0  0  0  0
   -5.5285    2.0072    0.0000 O   0  0  0  0  0  0  0  0  0  0  0  0
   -3.9146    2.3503    0.0000 C   0  0  0  0  0  0  0  0  0  0  0  0
   -3.1076    2.5218    0.0000 C   0  0  0  0  0  0  0  0  0  0  0  0
   -2.5556    1.9087    0.0000 C   0  0  0  0  0  0  0  0  0  0  0  0
   -2.8105    1.1241    0.0000 C   0  0  0  0  0  0  0  0  0  0  0  0
   -3.6175    0.9526    0.0000 C   0  0  0  0  0  0  0  0  0  0  0  0
   -1.7486    2.0803    0.0000 N   0  0  0  0  0  0  0  0  0  0  0  0
   -1.1966    1.4672    0.0000 C   0  0  0  0  0  0  0  0  0  0  0  0
   -0.3896    1.6387    0.0000 C   0  0  0  0  0  0  0  0  0  0  0  0
   -0.1347    2.4233    0.0000 O   0  0  0  0  0  0  0  0  0  0  0  0
   -1.4515    0.6825    0.0000 O   0  0  0  0  0  0  0  0  0  0  0  0
    3.9604    0.2410    0.0000 C   0  0  0  0  0  0  0  0  0  0  0  0
    3.7054    1.0256    0.0000 C   0  0  0  0  0  0  0  0  0  0  0  0
    2.8985    1.1971    0.0000 C   0  0  0  0  0  0  0  0  0  0  0  0
    2.3464    0.5840    0.0000 C   0  0  0  0  0  0  0  0  0  0  0  0
    2.6014   -0.2006    0.0000 C   0  0  0  0  0  0  0  0  0  0  0  0
    3.4084   -0.3721    0.0000 C   0  0  0  0  0  0  0  0  0  0  0  0
    1.9339   -0.6855    0.0000 O   0  0  0  0  0  0  0  0  0  0  0  0
    1.2665   -0.2006    0.0000 C   0  0  0  0  0  0  0  0  0  0  0  0
    0.4595   -0.3721    0.0000 C   0  0  0  0  0  0  0  0  0  0  0  0
   -0.0925    0.2410    0.0000 C   0  0  0  0  0  0  0  0  0  0  0  0
    0.1624    1.0256    0.0000 C   0  0  0  0  0  0  0  0  0  0  0  0
    0.9694    1.1971    0.0000 C   0  0  0  0  0  0  0  0  0  0  0  0
    1.5214    0.5840    0.0000 C   0  0  0  0  0  0  0  0  0  0  0  0
  1  2  1  0  0  0  0
  2  3  1  0  0  0  0
  2  4  2  0  0  0  0
  1  5  2  0  0  0  0
  5  6  1  0  0  0  0
  6  7  2  0  0  0  0
  7  8  1  0  0  0  0
  8  9  2  0  0  0  0
  1  9  1  0  0  0  0
 11 12  1  0  0  0  0
 12 13  2  0  0  0  0
 11 14  1  0  0  0  0
 15 16  1  0  0  0  0
 16 17  2  0  0  0  0
 17 18  1  0  0  0  0
 18 19  2  0  0  0  0
 19 20  1  0  0  0  0
 15 20  2  0  0  0  0
 19 21  1  0  0  0  0
 21 22  1  0  0  0  0
 22 23  1  0  0  0  0
 23 24  2  0  0  0  0
 24 25  1  0  0  0  0
 25 26  2  0  0  0  0
 26 27  1  0  0  0  0
 18 27  1  0  0  0  0
 22 27  2  0  0  0  0
 12 25  1  0  0  0  0
 10 11  1  0  0  0  0
  7 10  1  0  0  0  0
M  END
>  <type>
systematic

$$$$
4-[[1-Ethoxy-2-oxo-2-[4-(1-piperidinyl)phenyl]ethyl]amino]-2-methylbenzoic acid
  Mrv2401 11012420112D          

 29 31  0  0  0  0            999 V2000
   -0.7145    2.0625    0.0000 C   0  0  0  0  0  0  0  0  0  0  0  0
   -0.7145    1.2375    0.0000 C   0  0  0  0  0  0  0  0  0  0  0  0
    0.0000    0.8250    0.0000 O   0  0  0  0  0  0  0  0  0  0  0  0
   -1.4289    0.8250    0.0000 O   0  0  0  0  0  0  0  0  0  0  0  0
   -1.4289    2.4750    0.0000 C   0  0  0  0  0  0  0  0  0  0  0  0
   -1.4289    3.3000    0.0000 C   0  0  0  0  0  0  0  0  0  0  0  0
   -0.7145    3.7125    0.0000 C   0  0  0  0  0  0  0  0  0  0  0  0
   -0.0000    3.3000    0.0000 C   0  0  0  0  0  0  0  0  0  0  0  0
    0.0000    2.4750    0.0000 C   0  0  0  0  0  0  0  0  0  0  0  0
   -2.1434    2.0625    0.0000 C   0  0  0  0  0  0  0  0  0  0  0  0
   -0.7145    4.5375    0.0000 N   0  0  0  0  0  0  0  0  0  0  0  0
   -0.0000    4.9500    0.0000 C   0  0  0  0  0  0  0  0  0  0  0  0
   -0.0000    5.7750    0.0000 C   0  0  0  0  0  0  0  0  0  0  0  0
    0.7145    6.1875    0.0000 C   0  0  0  0  0  0  0  0  0  0  0  0
    0.7145    7.0125    0.0000 C   0  0  0  0  0  0  0  0  0  0  0  0
    1.4289    7.4250    0.0000 C   0  0  0  0  0  0  0  0  0  0  0  0
    2.1434    7.0125    0.0000 C   0  0  0  0  0  0  0  0  0  0  0  0
    2.1434    6.1875    0.0000 C   0  0  0  0  0  0  0  0  0  0  0  0
    1.4289    5.7750    0.0000 C   0  0  0  0  0  0  0  0  0  0  0  0
    4.2868    8.2500    0.0000 C   0  0  0  0  0  0  0  0  0  0  0  0
    4.2868    7.4250    0.0000 C   0  0  0  0  0  0  0  0  0  0  0  0
    3.5724    7.0125    0.0000 C   0  0  0  0  0  0  0  0  0  0  0  0
    2.8579    7.4250    0.0000 N   0  0  0  0  0  0  0  0  0  0  0  0
    2.8579    8.2500    0.0000 C   0  0  0  0  0  0  0  0  0  0  0  0
    3.5724    8.6625    0.0000 C   0  0  0  0  0  0  0  0  0  0  0  0
   -0.7145    6.1875    0.0000 O   0  0  0  0  0  0  0  0  0  0  0  0
    0.7145    4.5375    0.0000 O   0  0  0  0  0  0  0  0  0  0  0  0
    1.4289    4.9500    0.0000 C   0  0  0  0  0  0  0  0  0  0  0  0
    2.1434    4.5375    0.0000 C   0  0  0  0  0  0  0  0  0  0  0  0
  1  2  1  0  0  0  0
  2  3  1  0  0  0  0
  2  4  2  0  0  0  0
  1  5  2  0  0  0  0
  5  6  1  0  0  0  0
  6  7  2  0  0  0  0
  7  8  1  0  0  0  0
  8  9  2  0  0  0  0
  1  9  1  0  0  0  0
  5 10  1  0  0  0  0
 12 13  1  0  0  0  0
 14 15  2  0  0  0  0
 15 16  1  0  0  0  0
 16 17  2  0  0  0  0
 17 18  1  0  0  0  0
 18 19  2  0  0  0  0
 14 19  1  0  0  0  0
 20 21  1  0  0  0  0
 21 22  1  0  0  0  0
 22 23  1  0  0  0  0
 23 24  1  0  0  0  0
 24 25  1  0  0  0  0
 20 25  1  0  0  0  0
 17 23  1  0  0  0  0
 13 14  1  0  0  0  0
 13 26  2  0  0  0  0
 28 29  1  0  0  0  0
 27 28  1  0  0  0  0
 12 27  1  0  0  0  0
 11 12  1  0  0  0  0
  7 11  1  0  0  0  0
M  END
>  <type>
systematic

$$$$
3-Amino-4-[2-(4-fluorobenzoyl)hydrazinyl]benzoic acid
  Mrv2401 11012420122D          

 21 22  0  0  0  0            999 V2000
    2.8579   -2.4750    0.0000 C   0  0  0  0  0  0  0  0  0  0  0  0
    2.8579   -1.6500    0.0000 C   0  0  0  0  0  0  0  0  0  0  0  0
    2.1434   -1.2375    0.0000 O   0  0  0  0  0  0  0  0  0  0  0  0
    3.5724   -1.2375    0.0000 O   0  0  0  0  0  0  0  0  0  0  0  0
    3.5724   -2.8875    0.0000 C   0  0  0  0  0  0  0  0  0  0  0  0
    3.5724   -3.7125    0.0000 C   0  0  0  0  0  0  0  0  0  0  0  0
    2.8579   -4.1250    0.0000 C   0  0  0  0  0  0  0  0  0  0  0  0
    2.1434   -3.7125    0.0000 C   0  0  0  0  0  0  0  0  0  0  0  0
    2.1434   -2.8875    0.0000 C   0  0  0  0  0  0  0  0  0  0  0  0
    2.8579   -4.9500    0.0000 N   0  0  0  0  0  0  0  0  0  0  0  0
    2.1434   -5.3625    0.0000 N   0  0  0  0  0  0  0  0  0  0  0  0
    2.1434   -6.1875    0.0000 C   0  0  0  0  0  0  0  0  0  0  0  0
    2.8579   -6.6000    0.0000 O   0  0  0  0  0  0  0  0  0  0  0  0
    1.4289   -6.6000    0.0000 C   0  0  0  0  0  0  0  0  0  0  0  0
    1.4289   -7.4250    0.0000 C   0  0  0  0  0  0  0  0  0  0  0  0
    0.7145   -7.8375    0.0000 C   0  0  0  0  0  0  0  0  0  0  0  0
    0.0000   -7.4250    0.0000 C   0  0  0  0  0  0  0  0  0  0  0  0
    0.0000   -6.6000    0.0000 C   0  0  0  0  0  0  0  0  0  0  0  0
    0.7145   -6.1875    0.0000 C   0  0  0  0  0  0  0  0  0  0  0  0
   -0.7145   -7.8375    0.0000 F   0  0  0  0  0  0  0  0  0  0  0  0
    4.2868   -4.1250    0.0000 N   0  0  0  0  0  0  0  0  0  0  0  0
  1  2  1  0  0  0  0
  2  3  1  0  0  0  0
  2  4  2  0  0  0  0
  1  5  2  0  0  0  0
  5  6  1  0  0  0  0
  6  7  2  0  0  0  0
  7  8  1  0  0  0  0
  8  9  2  0  0  0  0
  1  9  1  0  0  0  0
 10 11  1  0  0  0  0
 12 13  2  0  0  0  0
 12 14  1  0  0  0  0
 14 15  2  0  0  0  0
 15 16  1  0  0  0  0
 16 17  2  0  0  0  0
 17 18  1  0  0  0  0
 18 19  2  0  0  0  0
 14 19  1  0  0  0  0
 17 20  1  0  0  0  0
 11 12  1  0  0  0  0
  7 10  1  0  0  0  0
  6 21  1  0  0  0  0
M  END
>  <type>
systematic

$$$$
3-Amino-4-[2-(4-chlorobenzoyl)hydrazinyl]benzoic acid
  Mrv2401 11012420132D          

 21 22  0  0  0  0            999 V2000
    2.8579   -2.4750    0.0000 C   0  0  0  0  0  0  0  0  0  0  0  0
    2.8579   -1.6500    0.0000 C   0  0  0  0  0  0  0  0  0  0  0  0
    2.1434   -1.2375    0.0000 O   0  0  0  0  0  0  0  0  0  0  0  0
    3.5724   -1.2375    0.0000 O   0  0  0  0  0  0  0  0  0  0  0  0
    3.5724   -2.8875    0.0000 C   0  0  0  0  0  0  0  0  0  0  0  0
    3.5724   -3.7125    0.0000 C   0  0  0  0  0  0  0  0  0  0  0  0
    2.8579   -4.1250    0.0000 C   0  0  0  0  0  0  0  0  0  0  0  0
    2.1434   -3.7125    0.0000 C   0  0  0  0  0  0  0  0  0  0  0  0
    2.1434   -2.8875    0.0000 C   0  0  0  0  0  0  0  0  0  0  0  0
    2.8579   -4.9500    0.0000 N   0  0  0  0  0  0  0  0  0  0  0  0
    2.1434   -5.3625    0.0000 N   0  0  0  0  0  0  0  0  0  0  0  0
    2.1434   -6.1875    0.0000 C   0  0  0  0  0  0  0  0  0  0  0  0
    2.8579   -6.6000    0.0000 O   0  0  0  0  0  0  0  0  0  0  0  0
    1.4289   -6.6000    0.0000 C   0  0  0  0  0  0  0  0  0  0  0  0
    1.4289   -7.4250    0.0000 C   0  0  0  0  0  0  0  0  0  0  0  0
    0.7145   -7.8375    0.0000 C   0  0  0  0  0  0  0  0  0  0  0  0
    0.0000   -7.4250    0.0000 C   0  0  0  0  0  0  0  0  0  0  0  0
    0.0000   -6.6000    0.0000 C   0  0  0  0  0  0  0  0  0  0  0  0
    0.7145   -6.1875    0.0000 C   0  0  0  0  0  0  0  0  0  0  0  0
   -0.7145   -7.8375    0.0000 Cl  0  0  0  0  0  0  0  0  0  0  0  0
    4.2868   -4.1250    0.0000 N   0  0  0  0  0  0  0  0  0  0  0  0
  1  2  1  0  0  0  0
  2  3  1  0  0  0  0
  2  4  2  0  0  0  0
  1  5  2  0  0  0  0
  5  6  1  0  0  0  0
  6  7  2  0  0  0  0
  7  8  1  0  0  0  0
  8  9  2  0  0  0  0
  1  9  1  0  0  0  0
 10 11  1  0  0  0  0
 12 13  2  0  0  0  0
 12 14  1  0  0  0  0
 14 15  2  0  0  0  0
 15 16  1  0  0  0  0
 16 17  2  0  0  0  0
 17 18  1  0  0  0  0
 18 19  2  0  0  0  0
 14 19  1  0  0  0  0
 17 20  1  0  0  0  0
 11 12  1  0  0  0  0
  7 10  1  0  0  0  0
  6 21  1  0  0  0  0
M  END
>  <type>
systematic

$$$$
Benzoic acid, p -[2-(5-chloroanthraniloyl)hydrazino]-
  Mrv2401 11012420412D          

 21 22  0  0  0  0            999 V2000
    2.8579   -2.4750    0.0000 C   0  0  0  0  0  0  0  0  0  0  0  0
    2.8579   -1.6500    0.0000 C   0  0  0  0  0  0  0  0  0  0  0  0
    2.1434   -1.2375    0.0000 O   0  0  0  0  0  0  0  0  0  0  0  0
    3.5724   -1.2375    0.0000 O   0  0  0  0  0  0  0  0  0  0  0  0
    3.5724   -2.8875    0.0000 C   0  0  0  0  0  0  0  0  0  0  0  0
    3.5724   -3.7125    0.0000 C   0  0  0  0  0  0  0  0  0  0  0  0
    2.8579   -4.1250    0.0000 C   0  0  0  0  0  0  0  0  0  0  0  0
    2.1434   -3.7125    0.0000 C   0  0  0  0  0  0  0  0  0  0  0  0
    2.1434   -2.8875    0.0000 C   0  0  0  0  0  0  0  0  0  0  0  0
    2.8579   -4.9500    0.0000 N   0  0  0  0  0  0  0  0  0  0  0  0
    3.5724   -5.3625    0.0000 N   0  0  0  0  0  0  0  0  0  0  0  0
    5.0013   -5.3625    0.0000 N   0  0  0  0  0  0  0  0  0  0  0  0
    5.0013   -6.1875    0.0000 C   0  0  0  0  0  0  0  0  0  0  0  0
    5.7158   -6.6000    0.0000 C   0  0  0  0  0  0  0  0  0  0  0  0
    5.7158   -7.4250    0.0000 C   0  0  0  0  0  0  0  0  0  0  0  0
    5.0013   -7.8375    0.0000 C   0  0  0  0  0  0  0  0  0  0  0  0
    4.2868   -7.4250    0.0000 C   0  0  0  0  0  0  0  0  0  0  0  0
    4.2868   -6.6000    0.0000 C   0  0  0  0  0  0  0  0  0  0  0  0
    3.5724   -6.1875    0.0000 C   0  0  0  0  0  0  0  0  0  0  0  0
    2.8579   -6.6000    0.0000 O   0  0  0  0  0  0  0  0  0  0  0  0
    5.0013   -8.6625    0.0000 Cl  0  0  0  0  0  0  0  0  0  0  0  0
  1  2  1  0  0  0  0
  2  3  1  0  0  0  0
  2  4  2  0  0  0  0
  1  5  2  0  0  0  0
  5  6  1  0  0  0  0
  6  7  2  0  0  0  0
  7  8  1  0  0  0  0
  8  9  2  0  0  0  0
  1  9  1  0  0  0  0
 10 11  1  0  0  0  0
 12 13  1  0  0  0  0
 13 14  2  0  0  0  0
 14 15  1  0  0  0  0
 15 16  2  0  0  0  0
 16 17  1  0  0  0  0
 17 18  2  0  0  0  0
 13 18  1  0  0  0  0
 18 19  1  0  0  0  0
 19 20  2  0  0  0  0
 16 21  1  0  0  0  0
 11 19  1  0  0  0  0
  7 10  1  0  0  0  0
M  END
>  <type>
systematic

$$$$
3-Pyridinecarboxylic acid, 2- (4-carboxy-2-nitrophenyl)hydrazide
  Mrv2401 11012420422D          

 22 23  0  0  0  0            999 V2000
    2.1434   -3.7125    0.0000 N   0  0  0  0  0  0  0  0  0  0  0  0
    2.1434   -2.8875    0.0000 C   0  0  0  0  0  0  0  0  0  0  0  0
    2.8579   -2.4750    0.0000 C   0  0  0  0  0  0  0  0  0  0  0  0
    3.5724   -2.8875    0.0000 C   0  0  0  0  0  0  0  0  0  0  0  0
    3.5724   -3.7125    0.0000 C   0  0  0  0  0  0  0  0  0  0  0  0
    2.8579   -4.1250    0.0000 C   0  0  0  0  0  0  0  0  0  0  0  0
    2.8579   -1.6500    0.0000 C   0  0  0  0  0  0  0  0  0  0  0  0
    2.1434   -1.2375    0.0000 O   0  0  0  0  0  0  0  0  0  0  0  0
    3.5724   -0.4125    0.0000 N   0  0  0  0  0  0  0  0  0  0  0  0
    3.5724   -1.2375    0.0000 N   0  0  0  0  0  0  0  0  0  0  0  0
    4.2868    0.0000    0.0000 C   0  0  0  0  0  0  0  0  0  0  0  0
    4.2868    0.8250    0.0000 C   0  0  0  0  0  0  0  0  0  0  0  0
    5.0013    1.2375    0.0000 C   0  0  0  0  0  0  0  0  0  0  0  0
    5.7158    0.8250    0.0000 C   0  0  0  0  0  0  0  0  0  0  0  0
    5.7158   -0.0000    0.0000 C   0  0  0  0  0  0  0  0  0  0  0  0
    5.0013   -0.4125    0.0000 C   0  0  0  0  0  0  0  0  0  0  0  0
    3.5724    1.2375    0.0000 N   0  3  0  0  0  0  0  0  0  0  0  0
    3.5724    2.0625    0.0000 O   0  0  0  0  0  0  0  0  0  0  0  0
    2.8579    0.8250    0.0000 O   0  5  0  0  0  0  0  0  0  0  0  0
    6.4302    1.2375    0.0000 C   0  0  0  0  0  0  0  0  0  0  0  0
    6.4302    2.0625    0.0000 O   0  0  0  0  0  0  0  0  0  0  0  0
    7.1447    0.8250    0.0000 O   0  0  0  0  0  0  0  0  0  0  0  0
  1  2  2  0  0  0  0
  2  3  1  0  0  0  0
  3  4  2  0  0  0  0
  4  5  1  0  0  0  0
  5  6  2  0  0  0  0
  1  6  1  0  0  0  0
  7  8  2  0  0  0  0
  3  7  1  0  0  0  0
  9 10  1  0  0  0  0
 11 12  2  0  0  0  0
 12 13  1  0  0  0  0
 13 14  2  0  0  0  0
 14 15  1  0  0  0  0
 15 16  2  0  0  0  0
 11 16  1  0  0  0  0
 17 18  2  0  0  0  0
 17 19  1  0  0  0  0
 12 17  1  0  0  0  0
 20 21  1  0  0  0  0
 20 22  2  0  0  0  0
 14 20  1  0  0  0  0
  9 11  1  0  0  0  0
  7 10  1  0  0  0  0
M  CHG  2  17   1  19  -1
M  END
>  <type>
systematic

$$$$
4-[[2-Oxo-2-(2-oxo-2H-1-benzopyran-3-yl)ethyl]amino]benzoic acid
  Mrv2401 11012420432D          

 24 26  0  0  0  0            999 V2000
    6.4302   -1.2375    0.0000 C   0  0  0  0  0  0  0  0  0  0  0  0
    7.1447   -1.6500    0.0000 C   0  0  0  0  0  0  0  0  0  0  0  0
    7.8592   -1.2375    0.0000 O   0  0  0  0  0  0  0  0  0  0  0  0
    7.1447   -2.4750    0.0000 O   0  0  0  0  0  0  0  0  0  0  0  0
    5.7158   -1.6500    0.0000 C   0  0  0  0  0  0  0  0  0  0  0  0
    5.0013   -1.2375    0.0000 C   0  0  0  0  0  0  0  0  0  0  0  0
    5.0013   -0.4125    0.0000 C   0  0  0  0  0  0  0  0  0  0  0  0
    5.7158   -0.0000    0.0000 C   0  0  0  0  0  0  0  0  0  0  0  0
    6.4302   -0.4125    0.0000 C   0  0  0  0  0  0  0  0  0  0  0  0
    4.2868   -0.0000    0.0000 N   0  0  0  0  0  0  0  0  0  0  0  0
    3.5724   -0.4125    0.0000 C   0  0  0  0  0  0  0  0  0  0  0  0
    2.8579   -0.0000    0.0000 C   0  0  0  0  0  0  0  0  0  0  0  0
   -0.7145   -1.2375    0.0000 C   0  0  0  0  0  0  0  0  0  0  0  0
    0.0000   -1.6500    0.0000 C   0  0  0  0  0  0  0  0  0  0  0  0
    0.7145   -1.2375    0.0000 C   0  0  0  0  0  0  0  0  0  0  0  0
    0.7145   -0.4125    0.0000 C   0  0  0  0  0  0  0  0  0  0  0  0
    0.0000   -0.0000    0.0000 C   0  0  0  0  0  0  0  0  0  0  0  0
   -0.7145   -0.4125    0.0000 C   0  0  0  0  0  0  0  0  0  0  0  0
    1.4289   -0.0000    0.0000 C   0  0  0  0  0  0  0  0  0  0  0  0
    2.1434   -0.4125    0.0000 C   0  0  0  0  0  0  0  0  0  0  0  0
    2.1434   -1.2375    0.0000 C   0  0  0  0  0  0  0  0  0  0  0  0
    1.4289   -1.6500    0.0000 O   0  0  0  0  0  0  0  0  0  0  0  0
    2.8579   -1.6500    0.0000 O   0  0  0  0  0  0  0  0  0  0  0  0
    2.8579    0.8250    0.0000 O   0  0  0  0  0  0  0  0  0  0  0  0
  1  2  1  0  0  0  0
  2  3  1  0  0  0  0
  2  4  2  0  0  0  0
  1  5  2  0  0  0  0
  5  6  1  0  0  0  0
  6  7  2  0  0  0  0
  7  8  1  0  0  0  0
  8  9  2  0  0  0  0
  1  9  1  0  0  0  0
 11 12  1  0  0  0  0
 13 14  1  0  0  0  0
 14 15  2  0  0  0  0
 15 16  1  0  0  0  0
 16 17  2  0  0  0  0
 17 18  1  0  0  0  0
 13 18  2  0  0  0  0
 16 19  1  0  0  0  0
 19 20  2  0  0  0  0
 20 21  1  0  0  0  0
 21 22  1  0  0  0  0
 15 22  1  0  0  0  0
 21 23  2  0  0  0  0
 12 20  1  0  0  0  0
 12 24  2  0  0  0  0
 10 11  1  0  0  0  0
  7 10  1  0  0  0  0
M  END
>  <type>
systematic

$$$$
4-[[2-[4-[(2-Carboxybenzoyl)amino]phenyl]-2-oxoethyl]amino]-2-hydroxybenzoic acid
  Mrv2401 11012420442D          

 32 34  0  0  0  0            999 V2000
    3.5724   -6.1875    0.0000 C   0  0  0  0  0  0  0  0  0  0  0  0
    3.5724   -5.3625    0.0000 C   0  0  0  0  0  0  0  0  0  0  0  0
    2.8579   -4.9500    0.0000 O   0  0  0  0  0  0  0  0  0  0  0  0
    4.2868   -4.9500    0.0000 O   0  0  0  0  0  0  0  0  0  0  0  0
    4.2868   -6.6000    0.0000 C   0  0  0  0  0  0  0  0  0  0  0  0
    4.2868   -7.4250    0.0000 C   0  0  0  0  0  0  0  0  0  0  0  0
    3.5724   -7.8375    0.0000 C   0  0  0  0  0  0  0  0  0  0  0  0
    2.8579   -7.4250    0.0000 C   0  0  0  0  0  0  0  0  0  0  0  0
    2.8579   -6.6000    0.0000 C   0  0  0  0  0  0  0  0  0  0  0  0
    5.0013   -6.1875    0.0000 O   0  0  0  0  0  0  0  0  0  0  0  0
    3.5724   -8.6625    0.0000 N   0  0  0  0  0  0  0  0  0  0  0  0
    2.8579   -9.0750    0.0000 C   0  0  0  0  0  0  0  0  0  0  0  0
    2.8579   -9.9000    0.0000 C   0  0  0  0  0  0  0  0  0  0  0  0
    3.5724  -10.3125    0.0000 O   0  0  0  0  0  0  0  0  0  0  0  0
    2.1434  -10.3125    0.0000 C   0  0  0  0  0  0  0  0  0  0  0  0
    2.1434  -11.1375    0.0000 C   0  0  0  0  0  0  0  0  0  0  0  0
    1.4289  -11.5500    0.0000 C   0  0  0  0  0  0  0  0  0  0  0  0
    0.7145  -11.1375    0.0000 C   0  0  0  0  0  0  0  0  0  0  0  0
    0.7145  -10.3125    0.0000 C   0  0  0  0  0  0  0  0  0  0  0  0
    1.4289   -9.9000    0.0000 C   0  0  0  0  0  0  0  0  0  0  0  0
    0.0000  -11.5500    0.0000 N   0  0  0  0  0  0  0  0  0  0  0  0
    0.0000  -12.3750    0.0000 C   0  0  0  0  0  0  0  0  0  0  0  0
    0.7145  -12.7875    0.0000 O   0  0  0  0  0  0  0  0  0  0  0  0
   -0.7145  -12.7875    0.0000 C   0  0  0  0  0  0  0  0  0  0  0  0
   -0.7145  -13.6125    0.0000 C   0  0  0  0  0  0  0  0  0  0  0  0
   -1.4289  -14.0250    0.0000 C   0  0  0  0  0  0  0  0  0  0  0  0
   -2.1434  -13.6125    0.0000 C   0  0  0  0  0  0  0  0  0  0  0  0
   -2.1434  -12.7875    0.0000 C   0  0  0  0  0  0  0  0  0  0  0  0
   -1.4289  -12.3750    0.0000 C   0  0  0  0  0  0  0  0  0  0  0  0
   -0.0000  -14.0250    0.0000 C   0  0  0  0  0  0  0  0  0  0  0  0
   -0.0000  -14.8500    0.0000 O   0  0  0  0  0  0  0  0  0  0  0  0
    0.7145  -13.6125    0.0000 O   0  0  0  0  0  0  0  0  0  0  0  0
  1  2  1  0  0  0  0
  2  3  1  0  0  0  0
  2  4  2  0  0  0  0
  1  5  2  0  0  0  0
  5  6  1  0  0  0  0
  6  7  2  0  0  0  0
  7  8  1  0  0  0  0
  8  9  2  0  0  0  0
  1  9  1  0  0  0  0
  5 10  1  0  0  0  0
 12 13  1  0  0  0  0
 13 14  2  0  0  0  0
 15 16  2  0  0  0  0
 16 17  1  0  0  0  0
 17 18  2  0  0  0  0
 18 19  1  0  0  0  0
 19 20  2  0  0  0  0
 15 20  1  0  0  0  0
 22 23  2  0  0  0  0
 22 24  1  0  0  0  0
 24 25  2  0  0  0  0
 25 26  1  0  0  0  0
 26 27  2  0  0  0  0
 27 28  1  0  0  0  0
 28 29  2  0  0  0  0
 24 29  1  0  0  0  0
 30 31  1  0  0  0  0
 30 32  2  0  0  0  0
 25 30  1  0  0  0  0
 21 22  1  0  0  0  0
 18 21  1  0  0  0  0
 13 15  1  0  0  0  0
 11 12  1  0  0  0  0
  7 11  1  0  0  0  0
M  END
>  <type>
systematic

$$$$
4-[[1-(4-Hydroxy-3-methoxy-5-nitrophenyl)-2-(4-methylphenyl)-2-oxoethyl]amino]benzoic acid
  Mrv2401 11012420452D          

 32 34  0  0  0  0            999 V2000
    2.8579    0.0000    0.0000 C   0  0  0  0  0  0  0  0  0  0  0  0
    2.8579    0.8250    0.0000 C   0  0  0  0  0  0  0  0  0  0  0  0
    2.1434    1.2375    0.0000 O   0  0  0  0  0  0  0  0  0  0  0  0
    3.5724    1.2375    0.0000 O   0  0  0  0  0  0  0  0  0  0  0  0
    3.5724   -0.4125    0.0000 C   0  0  0  0  0  0  0  0  0  0  0  0
    3.5724   -1.2375    0.0000 C   0  0  0  0  0  0  0  0  0  0  0  0
    2.8579   -1.6500    0.0000 C   0  0  0  0  0  0  0  0  0  0  0  0
    2.1434   -1.2375    0.0000 C   0  0  0  0  0  0  0  0  0  0  0  0
    2.1434   -0.4125    0.0000 C   0  0  0  0  0  0  0  0  0  0  0  0
    2.8579   -2.4750    0.0000 N   0  0  0  0  0  0  0  0  0  0  0  0
    2.1434   -2.8875    0.0000 C   0  0  0  0  0  0  0  0  0  0  0  0
    2.1434   -3.7125    0.0000 C   0  0  0  0  0  0  0  0  0  0  0  0
    2.8579   -4.1250    0.0000 O   0  0  0  0  0  0  0  0  0  0  0  0
    1.4289   -4.1250    0.0000 C   0  0  0  0  0  0  0  0  0  0  0  0
    1.4289   -4.9500    0.0000 C   0  0  0  0  0  0  0  0  0  0  0  0
    0.7145   -5.3625    0.0000 C   0  0  0  0  0  0  0  0  0  0  0  0
   -0.0000   -4.9500    0.0000 C   0  0  0  0  0  0  0  0  0  0  0  0
   -0.0000   -4.1250    0.0000 C   0  0  0  0  0  0  0  0  0  0  0  0
    0.7145   -3.7125    0.0000 C   0  0  0  0  0  0  0  0  0  0  0  0
   -0.7145   -5.3625    0.0000 C   0  0  0  0  0  0  0  0  0  0  0  0
    1.4289   -2.4750    0.0000 C   0  0  0  0  0  0  0  0  0  0  0  0
    0.7145   -2.8875    0.0000 C   0  0  0  0  0  0  0  0  0  0  0  0
   -0.0000   -2.4750    0.0000 C   0  0  0  0  0  0  0  0  0  0  0  0
    0.0000   -1.6500    0.0000 C   0  0  0  0  0  0  0  0  0  0  0  0
    0.7145   -1.2375    0.0000 C   0  0  0  0  0  0  0  0  0  0  0  0
    1.4289   -1.6500    0.0000 C   0  0  0  0  0  0  0  0  0  0  0  0
    0.7145   -0.4125    0.0000 N   0  3  0  0  0  0  0  0  0  0  0  0
    1.4289    0.0000    0.0000 O   0  0  0  0  0  0  0  0  0  0  0  0
    0.0000    0.0000    0.0000 O   0  5  0  0  0  0  0  0  0  0  0  0
   -0.7145   -2.8875    0.0000 O   0  0  0  0  0  0  0  0  0  0  0  0
   -1.4289   -2.4750    0.0000 C   0  0  0  0  0  0  0  0  0  0  0  0
   -0.7145   -1.2375    0.0000 O   0  0  0  0  0  0  0  0  0  0  0  0
  1  2  1  0  0  0  0
  2  3  1  0  0  0  0
  2  4  2  0  0  0  0
  1  5  2  0  0  0  0
  5  6  1  0  0  0  0
  6  7  2  0  0  0  0
  7  8  1  0  0  0  0
  8  9  2  0  0  0  0
  1  9  1  0  0  0  0
 11 12  1  0  0  0  0
 12 13  2  0  0  0  0
 14 15  2  0  0  0  0
 15 16  1  0  0  0  0
 16 17  2  0  0  0  0
 17 18  1  0  0  0  0
 18 19  2  0  0  0  0
 14 19  1  0  0  0  0
 17 20  1  0  0  0  0
 12 14  1  0  0  0  0
 21 22  2  0  0  0  0
 22 23  1  0  0  0  0
 23 24  2  0  0  0  0
 24 25  1  0  0  0  0
 25 26  2  0  0  0  0
 21 26  1  0  0  0  0
 27 28  2  0  0  0  0
 27 29  1  0  0  0  0
 25 27  1  0  0  0  0
 30 31  1  0  0  0  0
 23 30  1  0  0  0  0
 24 32  1  0  0  0  0
 11 21  1  0  0  0  0
 10 11  1  0  0  0  0
  7 10  1  0  0  0  0
M  CHG  2  27   1  29  -1
M  END
>  <type>
systematic

$$$$
3-Amino-4-[2-(2-chlorobenzoyl)hydrazinyl]benzoic acid
  Mrv2401 11012420462D          

 21 22  0  0  0  0            999 V2000
    2.8579   -2.4750    0.0000 C   0  0  0  0  0  0  0  0  0  0  0  0
    2.8579   -1.6500    0.0000 C   0  0  0  0  0  0  0  0  0  0  0  0
    2.1434   -1.2375    0.0000 O   0  0  0  0  0  0  0  0  0  0  0  0
    3.5724   -1.2375    0.0000 O   0  0  0  0  0  0  0  0  0  0  0  0
    3.5724   -2.8875    0.0000 C   0  0  0  0  0  0  0  0  0  0  0  0
    3.5724   -3.7125    0.0000 C   0  0  0  0  0  0  0  0  0  0  0  0
    2.8579   -4.1250    0.0000 C   0  0  0  0  0  0  0  0  0  0  0  0
    2.1434   -3.7125    0.0000 C   0  0  0  0  0  0  0  0  0  0  0  0
    2.1434   -2.8875    0.0000 C   0  0  0  0  0  0  0  0  0  0  0  0
    2.8579   -4.9500    0.0000 N   0  0  0  0  0  0  0  0  0  0  0  0
    2.1434   -5.3625    0.0000 N   0  0  0  0  0  0  0  0  0  0  0  0
    2.1434   -6.1875    0.0000 C   0  0  0  0  0  0  0  0  0  0  0  0
    2.8579   -6.6000    0.0000 O   0  0  0  0  0  0  0  0  0  0  0  0
    1.4289   -6.6000    0.0000 C   0  0  0  0  0  0  0  0  0  0  0  0
    1.4289   -7.4250    0.0000 C   0  0  0  0  0  0  0  0  0  0  0  0
    0.7145   -7.8375    0.0000 C   0  0  0  0  0  0  0  0  0  0  0  0
    0.0000   -7.4250    0.0000 C   0  0  0  0  0  0  0  0  0  0  0  0
    0.0000   -6.6000    0.0000 C   0  0  0  0  0  0  0  0  0  0  0  0
    0.7145   -6.1875    0.0000 C   0  0  0  0  0  0  0  0  0  0  0  0
    2.1434   -7.8375    0.0000 Cl  0  0  0  0  0  0  0  0  0  0  0  0
    4.2868   -4.1250    0.0000 N   0  0  0  0  0  0  0  0  0  0  0  0
  1  2  1  0  0  0  0
  2  3  1  0  0  0  0
  2  4  2  0  0  0  0
  1  5  2  0  0  0  0
  5  6  1  0  0  0  0
  6  7  2  0  0  0  0
  7  8  1  0  0  0  0
  8  9  2  0  0  0  0
  1  9  1  0  0  0  0
 10 11  1  0  0  0  0
 12 13  2  0  0  0  0
 12 14  1  0  0  0  0
 14 15  2  0  0  0  0
 15 16  1  0  0  0  0
 16 17  2  0  0  0  0
 17 18  1  0  0  0  0
 18 19  2  0  0  0  0
 14 19  1  0  0  0  0
 15 20  1  0  0  0  0
 11 12  1  0  0  0  0
  7 10  1  0  0  0  0
  6 21  1  0  0  0  0
M  END
>  <type>
systematic

$$$$
3-Amino-4-[2-(2-fluorobenzoyl)hydrazinyl]benzoic acid
  Mrv2401 11012420472D          

 21 22  0  0  0  0            999 V2000
    2.8579   -2.4750    0.0000 C   0  0  0  0  0  0  0  0  0  0  0  0
    2.8579   -1.6500    0.0000 C   0  0  0  0  0  0  0  0  0  0  0  0
    2.1434   -1.2375    0.0000 O   0  0  0  0  0  0  0  0  0  0  0  0
    3.5724   -1.2375    0.0000 O   0  0  0  0  0  0  0  0  0  0  0  0
    3.5724   -2.8875    0.0000 C   0  0  0  0  0  0  0  0  0  0  0  0
    3.5724   -3.7125    0.0000 C   0  0  0  0  0  0  0  0  0  0  0  0
    2.8579   -4.1250    0.0000 C   0  0  0  0  0  0  0  0  0  0  0  0
    2.1434   -3.7125    0.0000 C   0  0  0  0  0  0  0  0  0  0  0  0
    2.1434   -2.8875    0.0000 C   0  0  0  0  0  0  0  0  0  0  0  0
    2.8579   -4.9500    0.0000 N   0  0  0  0  0  0  0  0  0  0  0  0
    2.1434   -5.3625    0.0000 N   0  0  0  0  0  0  0  0  0  0  0  0
    2.1434   -6.1875    0.0000 C   0  0  0  0  0  0  0  0  0  0  0  0
    2.8579   -6.6000    0.0000 O   0  0  0  0  0  0  0  0  0  0  0  0
    1.4289   -6.6000    0.0000 C   0  0  0  0  0  0  0  0  0  0  0  0
    1.4289   -7.4250    0.0000 C   0  0  0  0  0  0  0  0  0  0  0  0
    0.7145   -7.8375    0.0000 C   0  0  0  0  0  0  0  0  0  0  0  0
    0.0000   -7.4250    0.0000 C   0  0  0  0  0  0  0  0  0  0  0  0
    0.0000   -6.6000    0.0000 C   0  0  0  0  0  0  0  0  0  0  0  0
    0.7145   -6.1875    0.0000 C   0  0  0  0  0  0  0  0  0  0  0  0
    2.1434   -7.8375    0.0000 F   0  0  0  0  0  0  0  0  0  0  0  0
    4.2868   -4.1250    0.0000 N   0  0  0  0  0  0  0  0  0  0  0  0
  1  2  1  0  0  0  0
  2  3  1  0  0  0  0
  2  4  2  0  0  0  0
  1  5  2  0  0  0  0
  5  6  1  0  0  0  0
  6  7  2  0  0  0  0
  7  8  1  0  0  0  0
  8  9  2  0  0  0  0
  1  9  1  0  0  0  0
 10 11  1  0  0  0  0
 12 13  2  0  0  0  0
 12 14  1  0  0  0  0
 14 15  2  0  0  0  0
 15 16  1  0  0  0  0
 16 17  2  0  0  0  0
 17 18  1  0  0  0  0
 18 19  2  0  0  0  0
 14 19  1  0  0  0  0
 15 20  1  0  0  0  0
 11 12  1  0  0  0  0
  7 10  1  0  0  0  0
  6 21  1  0  0  0  0
M  END
>  <type>
systematic

$$$$
\3,4-Dimethoxybenzoic acid 2- (3-carboxyphenyl)hydrazide
  Mrv2401 11012420482D          

 23 24  0  0  0  0            999 V2000
    3.5724   -1.2375    0.0000 C   0  0  0  0  0  0  0  0  0  0  0  0
    3.5724   -0.4125    0.0000 C   0  0  0  0  0  0  0  0  0  0  0  0
    4.2868    0.0000    0.0000 O   0  0  0  0  0  0  0  0  0  0  0  0
    4.2868   -1.6500    0.0000 C   0  0  0  0  0  0  0  0  0  0  0  0
    4.2868   -2.4750    0.0000 C   0  0  0  0  0  0  0  0  0  0  0  0
    3.5724   -2.8875    0.0000 C   0  0  0  0  0  0  0  0  0  0  0  0
    2.8579   -2.4750    0.0000 C   0  0  0  0  0  0  0  0  0  0  0  0
    2.8579   -1.6500    0.0000 C   0  0  0  0  0  0  0  0  0  0  0  0
    2.8579    0.8250    0.0000 N   0  0  0  0  0  0  0  0  0  0  0  0
    2.8579    0.0000    0.0000 N   0  0  0  0  0  0  0  0  0  0  0  0
    3.5724    1.2375    0.0000 C   0  0  0  0  0  0  0  0  0  0  0  0
    3.5724    2.0625    0.0000 C   0  0  0  0  0  0  0  0  0  0  0  0
    4.2868    2.4750    0.0000 C   0  0  0  0  0  0  0  0  0  0  0  0
    5.0013    2.0625    0.0000 C   0  0  0  0  0  0  0  0  0  0  0  0
    5.0013    1.2375    0.0000 C   0  0  0  0  0  0  0  0  0  0  0  0
    4.2868    0.8250    0.0000 C   0  0  0  0  0  0  0  0  0  0  0  0
    4.2868    3.3000    0.0000 C   0  0  0  0  0  0  0  0  0  0  0  0
    5.0013    3.7125    0.0000 O   0  0  0  0  0  0  0  0  0  0  0  0
    3.5724    3.7125    0.0000 O   0  0  0  0  0  0  0  0  0  0  0  0
    5.0013   -2.8875    0.0000 O   0  0  0  0  0  0  0  0  0  0  0  0
    5.0013   -3.7125    0.0000 C   0  0  0  0  0  0  0  0  0  0  0  0
    3.5724   -3.7125    0.0000 O   0  0  0  0  0  0  0  0  0  0  0  0
    4.2868   -4.1250    0.0000 C   0  0  0  0  0  0  0  0  0  0  0  0
  1  2  1  0  0  0  0
  2  3  2  0  0  0  0
  1  4  2  0  0  0  0
  4  5  1  0  0  0  0
  5  6  2  0  0  0  0
  6  7  1  0  0  0  0
  7  8  2  0  0  0  0
  1  8  1  0  0  0  0
  9 10  1  0  0  0  0
 11 12  2  0  0  0  0
 12 13  1  0  0  0  0
 13 14  2  0  0  0  0
 14 15  1  0  0  0  0
 15 16  2  0  0  0  0
 11 16  1  0  0  0  0
 17 18  1  0  0  0  0
 17 19  2  0  0  0  0
 13 17  1  0  0  0  0
  9 11  1  0  0  0  0
  2 10  1  0  0  0  0
 20 21  1  0  0  0  0
  5 20  1  0  0  0  0
 22 23  1  0  0  0  0
  6 22  1  0  0  0  0
M  END
>  <type>
systematic

$$$$
4-[(2-Naphtho[2,1- b ]furan-2-yl-2-oxoethyl)amino]benzoic acid
  Mrv2401 11012420492D          

 26 29  0  0  0  0            999 V2000
   -2.9103    0.0915    0.0000 C   0  0  0  0  0  0  0  0  0  0  0  0
   -3.6373   -0.2985    0.0000 C   0  0  0  0  0  0  0  0  0  0  0  0
   -3.6631   -1.1231    0.0000 O   0  0  0  0  0  0  0  0  0  0  0  0
   -4.3386    0.1361    0.0000 O   0  0  0  0  0  0  0  0  0  0  0  0
   -2.8845    0.9161    0.0000 C   0  0  0  0  0  0  0  0  0  0  0  0
   -2.1575    1.3061    0.0000 C   0  0  0  0  0  0  0  0  0  0  0  0
   -1.4563    0.8714    0.0000 C   0  0  0  0  0  0  0  0  0  0  0  0
   -1.4821    0.0468    0.0000 C   0  0  0  0  0  0  0  0  0  0  0  0
   -2.2091   -0.3431    0.0000 C   0  0  0  0  0  0  0  0  0  0  0  0
   -0.7293    1.2614    0.0000 N   0  0  0  0  0  0  0  0  0  0  0  0
   -0.0281    0.8268    0.0000 C   0  0  0  0  0  0  0  0  0  0  0  0
    0.6989    1.2168    0.0000 C   0  0  0  0  0  0  0  0  0  0  0  0
    0.7247    2.0414    0.0000 O   0  0  0  0  0  0  0  0  0  0  0  0
    1.4608   -0.0406    0.0000 O   0  0  0  0  0  0  0  0  0  0  0  0
    2.1640    1.0941    0.0000 C   0  0  0  0  0  0  0  0  0  0  0  0
    1.4002    0.7822    0.0000 C   0  0  0  0  0  0  0  0  0  0  0  0
    4.7804    1.1137    0.0000 C   0  0  0  0  0  0  0  0  0  0  0  0
    3.9558    1.1395    0.0000 C   0  0  0  0  0  0  0  0  0  0  0  0
    3.5212    0.4383    0.0000 C   0  0  0  0  0  0  0  0  0  0  0  0
    3.9112   -0.2887    0.0000 C   0  0  0  0  0  0  0  0  0  0  0  0
    4.7358   -0.3145    0.0000 C   0  0  0  0  0  0  0  0  0  0  0  0
    5.1704    0.3867    0.0000 C   0  0  0  0  0  0  0  0  0  0  0  0
    3.4766   -0.9900    0.0000 C   0  0  0  0  0  0  0  0  0  0  0  0
    2.6520   -0.9642    0.0000 C   0  0  0  0  0  0  0  0  0  0  0  0
    2.2620   -0.2372    0.0000 C   0  0  0  0  0  0  0  0  0  0  0  0
    2.6966    0.4640    0.0000 C   0  0  0  0  0  0  0  0  0  0  0  0
  1  2  1  0  0  0  0
  2  3  1  0  0  0  0
  2  4  2  0  0  0  0
  1  5  2  0  0  0  0
  5  6  1  0  0  0  0
  6  7  2  0  0  0  0
  7  8  1  0  0  0  0
  8  9  2  0  0  0  0
  1  9  1  0  0  0  0
 11 12  1  0  0  0  0
 12 13  2  0  0  0  0
 14 25  1  0  0  0  0
 26 15  1  0  0  0  0
 15 16  2  0  0  0  0
 14 16  1  0  0  0  0
 17 18  2  0  0  0  0
 18 19  1  0  0  0  0
 19 20  2  0  0  0  0
 20 21  1  0  0  0  0
 21 22  2  0  0  0  0
 17 22  1  0  0  0  0
 20 23  1  0  0  0  0
 23 24  2  0  0  0  0
 24 25  1  0  0  0  0
 25 26  2  0  0  0  0
 19 26  1  0  0  0  0
 12 16  1  0  0  0  0
 10 11  1  0  0  0  0
  7 10  1  0  0  0  0
M  END
>  <type>
systematic

$$$$
2,4-Dimethoxybenzoic acid 2- (3-carboxyphenyl)hydrazide
  Mrv2401 11012420542D          

 23 24  0  0  0  0            999 V2000
    3.5724   -1.2375    0.0000 C   0  0  0  0  0  0  0  0  0  0  0  0
    3.5724   -0.4125    0.0000 C   0  0  0  0  0  0  0  0  0  0  0  0
    4.2868    0.0000    0.0000 O   0  0  0  0  0  0  0  0  0  0  0  0
    4.2868   -1.6500    0.0000 C   0  0  0  0  0  0  0  0  0  0  0  0
    4.2868   -2.4750    0.0000 C   0  0  0  0  0  0  0  0  0  0  0  0
    3.5724   -2.8875    0.0000 C   0  0  0  0  0  0  0  0  0  0  0  0
    2.8579   -2.4750    0.0000 C   0  0  0  0  0  0  0  0  0  0  0  0
    2.8579   -1.6500    0.0000 C   0  0  0  0  0  0  0  0  0  0  0  0
    2.8579    0.8250    0.0000 N   0  0  0  0  0  0  0  0  0  0  0  0
    2.8579    0.0000    0.0000 N   0  0  0  0  0  0  0  0  0  0  0  0
    3.5724    1.2375    0.0000 C   0  0  0  0  0  0  0  0  0  0  0  0
    3.5724    2.0625    0.0000 C   0  0  0  0  0  0  0  0  0  0  0  0
    4.2868    2.4750    0.0000 C   0  0  0  0  0  0  0  0  0  0  0  0
    5.0013    2.0625    0.0000 C   0  0  0  0  0  0  0  0  0  0  0  0
    5.0013    1.2375    0.0000 C   0  0  0  0  0  0  0  0  0  0  0  0
    4.2868    0.8250    0.0000 C   0  0  0  0  0  0  0  0  0  0  0  0
    4.2868    3.3000    0.0000 C   0  0  0  0  0  0  0  0  0  0  0  0
    5.0013    3.7125    0.0000 O   0  0  0  0  0  0  0  0  0  0  0  0
    3.5724    3.7125    0.0000 O   0  0  0  0  0  0  0  0  0  0  0  0
    5.0013   -1.2375    0.0000 O   0  0  0  0  0  0  0  0  0  0  0  0
    5.7158   -1.6500    0.0000 C   0  0  0  0  0  0  0  0  0  0  0  0
    3.5724   -3.7125    0.0000 O   0  0  0  0  0  0  0  0  0  0  0  0
    4.2868   -4.1250    0.0000 C   0  0  0  0  0  0  0  0  0  0  0  0
  1  2  1  0  0  0  0
  2  3  2  0  0  0  0
  1  4  2  0  0  0  0
  4  5  1  0  0  0  0
  5  6  2  0  0  0  0
  6  7  1  0  0  0  0
  7  8  2  0  0  0  0
  1  8  1  0  0  0  0
  9 10  1  0  0  0  0
 11 12  2  0  0  0  0
 12 13  1  0  0  0  0
 13 14  2  0  0  0  0
 14 15  1  0  0  0  0
 15 16  2  0  0  0  0
 11 16  1  0  0  0  0
 17 18  1  0  0  0  0
 17 19  2  0  0  0  0
 13 17  1  0  0  0  0
  9 11  1  0  0  0  0
  2 10  1  0  0  0  0
 20 21  1  0  0  0  0
  4 20  1  0  0  0  0
 22 23  1  0  0  0  0
  6 22  1  0  0  0  0
M  END
>  <type>
systematic

$$$$
4-[2-(4-Methoxybenzoyl)hydrazinyl]-3-nitrobenzoic acid
  Mrv2401 11012420582D          

 24 25  0  0  0  0            999 V2000
    2.8579   -2.4750    0.0000 C   0  0  0  0  0  0  0  0  0  0  0  0
    2.8579   -1.6500    0.0000 C   0  0  0  0  0  0  0  0  0  0  0  0
    3.5724   -1.2375    0.0000 O   0  0  0  0  0  0  0  0  0  0  0  0
    2.1434   -1.2375    0.0000 O   0  0  0  0  0  0  0  0  0  0  0  0
    3.5724   -2.8875    0.0000 C   0  0  0  0  0  0  0  0  0  0  0  0
    3.5724   -3.7125    0.0000 C   0  0  0  0  0  0  0  0  0  0  0  0
    2.8579   -4.1250    0.0000 C   0  0  0  0  0  0  0  0  0  0  0  0
    2.1434   -3.7125    0.0000 C   0  0  0  0  0  0  0  0  0  0  0  0
    2.1434   -2.8875    0.0000 C   0  0  0  0  0  0  0  0  0  0  0  0
    4.2868   -4.1250    0.0000 N   0  3  0  0  0  0  0  0  0  0  0  0
    4.2868   -4.9500    0.0000 O   0  0  0  0  0  0  0  0  0  0  0  0
    5.0013   -3.7125    0.0000 O   0  5  0  0  0  0  0  0  0  0  0  0
    2.8579   -4.9500    0.0000 N   0  0  0  0  0  0  0  0  0  0  0  0
    2.1434   -5.3625    0.0000 N   0  0  0  0  0  0  0  0  0  0  0  0
    2.1434   -6.1875    0.0000 C   0  0  0  0  0  0  0  0  0  0  0  0
    2.8579   -6.6000    0.0000 O   0  0  0  0  0  0  0  0  0  0  0  0
    1.4289   -6.6000    0.0000 C   0  0  0  0  0  0  0  0  0  0  0  0
    1.4289   -7.4250    0.0000 C   0  0  0  0  0  0  0  0  0  0  0  0
    0.7145   -7.8375    0.0000 C   0  0  0  0  0  0  0  0  0  0  0  0
    0.0000   -7.4250    0.0000 C   0  0  0  0  0  0  0  0  0  0  0  0
    0.0000   -6.6000    0.0000 C   0  0  0  0  0  0  0  0  0  0  0  0
    0.7145   -6.1875    0.0000 C   0  0  0  0  0  0  0  0  0  0  0  0
   -0.7145   -7.8375    0.0000 O   0  0  0  0  0  0  0  0  0  0  0  0
   -0.7145   -8.6625    0.0000 C   0  0  0  0  0  0  0  0  0  0  0  0
  1  2  1  0  0  0  0
  2  3  1  0  0  0  0
  2  4  2  0  0  0  0
  1  5  2  0  0  0  0
  5  6  1  0  0  0  0
  6  7  2  0  0  0  0
  7  8  1  0  0  0  0
  8  9  2  0  0  0  0
  1  9  1  0  0  0  0
 10 11  2  0  0  0  0
 10 12  1  0  0  0  0
  6 10  1  0  0  0  0
 13 14  1  0  0  0  0
 15 16  2  0  0  0  0
 15 17  1  0  0  0  0
 17 18  2  0  0  0  0
 18 19  1  0  0  0  0
 19 20  2  0  0  0  0
 20 21  1  0  0  0  0
 21 22  2  0  0  0  0
 17 22  1  0  0  0  0
 23 24  1  0  0  0  0
 20 23  1  0  0  0  0
 14 15  1  0  0  0  0
  7 13  1  0  0  0  0
M  CHG  2  10   1  12  -1
M  END
>  <type>
systematic

$$$$
2-[[2-(4-Chlorophenyl)-2-oxoacetyl]amino]-4-nitrobenzoic acid
  Mrv2401 11012421002D          

 24 25  0  0  0  0            999 V2000
    2.8579   -2.4750    0.0000 C   0  0  0  0  0  0  0  0  0  0  0  0
    2.8579   -1.6500    0.0000 C   0  0  0  0  0  0  0  0  0  0  0  0
    2.1434   -1.2375    0.0000 O   0  0  0  0  0  0  0  0  0  0  0  0
    3.5724   -1.2375    0.0000 O   0  0  0  0  0  0  0  0  0  0  0  0
    3.5724   -2.8875    0.0000 C   0  0  0  0  0  0  0  0  0  0  0  0
    3.5724   -3.7125    0.0000 C   0  0  0  0  0  0  0  0  0  0  0  0
    2.8579   -4.1250    0.0000 C   0  0  0  0  0  0  0  0  0  0  0  0
    2.1434   -3.7125    0.0000 C   0  0  0  0  0  0  0  0  0  0  0  0
    2.1434   -2.8875    0.0000 C   0  0  0  0  0  0  0  0  0  0  0  0
    2.8579   -4.9500    0.0000 N   0  3  0  0  0  0  0  0  0  0  0  0
    2.1434   -5.3625    0.0000 O   0  0  0  0  0  0  0  0  0  0  0  0
    3.5724   -5.3625    0.0000 O   0  5  0  0  0  0  0  0  0  0  0  0
    4.2868   -2.4750    0.0000 N   0  0  0  0  0  0  0  0  0  0  0  0
    5.0013   -2.8875    0.0000 C   0  0  0  0  0  0  0  0  0  0  0  0
    5.0013   -3.7125    0.0000 O   0  0  0  0  0  0  0  0  0  0  0  0
    5.7158   -2.4750    0.0000 C   0  0  0  0  0  0  0  0  0  0  0  0
    5.7158   -1.6500    0.0000 O   0  0  0  0  0  0  0  0  0  0  0  0
    6.4302   -2.8875    0.0000 C   0  0  0  0  0  0  0  0  0  0  0  0
    7.1447   -2.4750    0.0000 C   0  0  0  0  0  0  0  0  0  0  0  0
    7.8592   -2.8875    0.0000 C   0  0  0  0  0  0  0  0  0  0  0  0
    7.8592   -3.7125    0.0000 C   0  0  0  0  0  0  0  0  0  0  0  0
    7.1447   -4.1250    0.0000 C   0  0  0  0  0  0  0  0  0  0  0  0
    6.4302   -3.7125    0.0000 C   0  0  0  0  0  0  0  0  0  0  0  0
    8.5737   -4.1250    0.0000 Cl  0  0  0  0  0  0  0  0  0  0  0  0
  1  2  1  0  0  0  0
  2  3  1  0  0  0  0
  2  4  2  0  0  0  0
  1  5  2  0  0  0  0
  5  6  1  0  0  0  0
  6  7  2  0  0  0  0
  7  8  1  0  0  0  0
  8  9  2  0  0  0  0
  1  9  1  0  0  0  0
 10 11  2  0  0  0  0
 10 12  1  0  0  0  0
  7 10  1  0  0  0  0
 14 15  2  0  0  0  0
 14 16  1  0  0  0  0
 16 17  2  0  0  0  0
 18 19  2  0  0  0  0
 19 20  1  0  0  0  0
 20 21  2  0  0  0  0
 21 22  1  0  0  0  0
 22 23  2  0  0  0  0
 18 23  1  0  0  0  0
 21 24  1  0  0  0  0
 16 18  1  0  0  0  0
 13 14  1  0  0  0  0
  5 13  1  0  0  0  0
M  CHG  2  10   1  12  -1
M  END
>  <type>
systematic

$$$$
Benzoic acid, 2- [[2-(9H-carbazol-9-yl)-2-oxoethyl]amino]-
  Mrv2401 11012421012D          

 26 29  0  0  0  0            999 V2000
   -0.2095   -2.7480    0.0000 C   0  0  0  0  0  0  0  0  0  0  0  0
   -0.2095   -1.9230    0.0000 C   0  0  0  0  0  0  0  0  0  0  0  0
   -0.9239   -1.5105    0.0000 O   0  0  0  0  0  0  0  0  0  0  0  0
    0.5050   -1.5105    0.0000 O   0  0  0  0  0  0  0  0  0  0  0  0
    0.5050   -3.1605    0.0000 C   0  0  0  0  0  0  0  0  0  0  0  0
    0.5050   -3.9855    0.0000 C   0  0  0  0  0  0  0  0  0  0  0  0
   -0.2095   -4.3980    0.0000 C   0  0  0  0  0  0  0  0  0  0  0  0
   -0.9239   -3.9855    0.0000 C   0  0  0  0  0  0  0  0  0  0  0  0
   -0.9239   -3.1605    0.0000 C   0  0  0  0  0  0  0  0  0  0  0  0
    1.2195   -2.7480    0.0000 N   0  0  0  0  0  0  0  0  0  0  0  0
    1.2195   -1.9230    0.0000 C   0  0  0  0  0  0  0  0  0  0  0  0
    1.9339   -1.5105    0.0000 C   0  0  0  0  0  0  0  0  0  0  0  0
    2.6484   -1.9230    0.0000 O   0  0  0  0  0  0  0  0  0  0  0  0
    3.9604    0.2410    0.0000 C   0  0  0  0  0  0  0  0  0  0  0  0
    3.7054    1.0256    0.0000 C   0  0  0  0  0  0  0  0  0  0  0  0
    2.8985    1.1971    0.0000 C   0  0  0  0  0  0  0  0  0  0  0  0
    2.3464    0.5840    0.0000 C   0  0  0  0  0  0  0  0  0  0  0  0
    2.6014   -0.2006    0.0000 C   0  0  0  0  0  0  0  0  0  0  0  0
    3.4084   -0.3721    0.0000 C   0  0  0  0  0  0  0  0  0  0  0  0
    1.9339   -0.6855    0.0000 N   0  0  0  0  0  0  0  0  0  0  0  0
    1.2665   -0.2006    0.0000 C   0  0  0  0  0  0  0  0  0  0  0  0
    0.4595   -0.3721    0.0000 C   0  0  0  0  0  0  0  0  0  0  0  0
   -0.0925    0.2410    0.0000 C   0  0  0  0  0  0  0  0  0  0  0  0
    0.1624    1.0256    0.0000 C   0  0  0  0  0  0  0  0  0  0  0  0
    0.9694    1.1971    0.0000 C   0  0  0  0  0  0  0  0  0  0  0  0
    1.5214    0.5840    0.0000 C   0  0  0  0  0  0  0  0  0  0  0  0
  1  2  1  0  0  0  0
  2  3  1  0  0  0  0
  2  4  2  0  0  0  0
  1  5  2  0  0  0  0
  5  6  1  0  0  0  0
  6  7  2  0  0  0  0
  7  8  1  0  0  0  0
  8  9  2  0  0  0  0
  1  9  1  0  0  0  0
 11 12  1  0  0  0  0
 12 13  2  0  0  0  0
 14 15  1  0  0  0  0
 15 16  2  0  0  0  0
 16 17  1  0  0  0  0
 17 18  2  0  0  0  0
 18 19  1  0  0  0  0
 14 19  2  0  0  0  0
 18 20  1  0  0  0  0
 20 21  1  0  0  0  0
 21 22  2  0  0  0  0
 22 23  1  0  0  0  0
 23 24  2  0  0  0  0
 24 25  1  0  0  0  0
 25 26  2  0  0  0  0
 17 26  1  0  0  0  0
 21 26  1  0  0  0  0
 12 20  1  0  0  0  0
 10 11  1  0  0  0  0
  5 10  1  0  0  0  0
M  END
>  <type>
systematic

$$$$
2-[[1-(4-Hydroxy-3-methoxy-5-nitrophenyl)-2-(4-methylphenyl)-2-oxoethyl]amino]benzoic acid
  Mrv2401 11012421022D          

 32 34  0  0  0  0            999 V2000
    2.8579    0.0000    0.0000 C   0  0  0  0  0  0  0  0  0  0  0  0
    2.8579    0.8250    0.0000 C   0  0  0  0  0  0  0  0  0  0  0  0
    2.1434    1.2375    0.0000 O   0  0  0  0  0  0  0  0  0  0  0  0
    3.5724    1.2375    0.0000 O   0  0  0  0  0  0  0  0  0  0  0  0
    3.5724   -0.4125    0.0000 C   0  0  0  0  0  0  0  0  0  0  0  0
    3.5724   -1.2375    0.0000 C   0  0  0  0  0  0  0  0  0  0  0  0
    2.8579   -1.6500    0.0000 C   0  0  0  0  0  0  0  0  0  0  0  0
    2.1434   -1.2375    0.0000 C   0  0  0  0  0  0  0  0  0  0  0  0
    2.1434   -0.4125    0.0000 C   0  0  0  0  0  0  0  0  0  0  0  0
    4.2868    0.0000    0.0000 N   0  0  0  0  0  0  0  0  0  0  0  0
    5.0013   -0.4125    0.0000 C   0  0  0  0  0  0  0  0  0  0  0  0
    5.7158   -0.0000    0.0000 C   0  0  0  0  0  0  0  0  0  0  0  0
    5.7158    0.8250    0.0000 O   0  0  0  0  0  0  0  0  0  0  0  0
    6.4302   -0.4125    0.0000 C   0  0  0  0  0  0  0  0  0  0  0  0
    7.1447   -0.0000    0.0000 C   0  0  0  0  0  0  0  0  0  0  0  0
    7.8592   -0.4125    0.0000 C   0  0  0  0  0  0  0  0  0  0  0  0
    7.8592   -1.2375    0.0000 C   0  0  0  0  0  0  0  0  0  0  0  0
    7.1447   -1.6500    0.0000 C   0  0  0  0  0  0  0  0  0  0  0  0
    6.4302   -1.2375    0.0000 C   0  0  0  0  0  0  0  0  0  0  0  0
    8.5737   -1.6500    0.0000 C   0  0  0  0  0  0  0  0  0  0  0  0
    5.0013   -1.2375    0.0000 C   0  0  0  0  0  0  0  0  0  0  0  0
    5.7158   -1.6500    0.0000 C   0  0  0  0  0  0  0  0  0  0  0  0
    5.7158   -2.4750    0.0000 C   0  0  0  0  0  0  0  0  0  0  0  0
    5.0013   -2.8875    0.0000 C   0  0  0  0  0  0  0  0  0  0  0  0
    4.2868   -2.4750    0.0000 C   0  0  0  0  0  0  0  0  0  0  0  0
    4.2868   -1.6500    0.0000 C   0  0  0  0  0  0  0  0  0  0  0  0
    3.5724   -2.8875    0.0000 N   0  3  0  0  0  0  0  0  0  0  0  0
    2.8579   -2.4750    0.0000 O   0  0  0  0  0  0  0  0  0  0  0  0
    3.5724   -3.7125    0.0000 O   0  5  0  0  0  0  0  0  0  0  0  0
    6.4302   -2.8875    0.0000 O   0  0  0  0  0  0  0  0  0  0  0  0
    6.4302   -3.7125    0.0000 C   0  0  0  0  0  0  0  0  0  0  0  0
    5.0013   -3.7125    0.0000 O   0  0  0  0  0  0  0  0  0  0  0  0
  1  2  1  0  0  0  0
  2  3  1  0  0  0  0
  2  4  2  0  0  0  0
  1  5  2  0  0  0  0
  5  6  1  0  0  0  0
  6  7  2  0  0  0  0
  7  8  1  0  0  0  0
  8  9  2  0  0  0  0
  1  9  1  0  0  0  0
 11 12  1  0  0  0  0
 12 13  2  0  0  0  0
 14 15  2  0  0  0  0
 15 16  1  0  0  0  0
 16 17  2  0  0  0  0
 17 18  1  0  0  0  0
 18 19  2  0  0  0  0
 14 19  1  0  0  0  0
 17 20  1  0  0  0  0
 12 14  1  0  0  0  0
 21 22  2  0  0  0  0
 22 23  1  0  0  0  0
 23 24  2  0  0  0  0
 24 25  1  0  0  0  0
 25 26  2  0  0  0  0
 21 26  1  0  0  0  0
 27 28  2  0  0  0  0
 27 29  1  0  0  0  0
 25 27  1  0  0  0  0
 30 31  1  0  0  0  0
 23 30  1  0  0  0  0
 24 32  1  0  0  0  0
 11 21  1  0  0  0  0
 10 11  1  0  0  0  0
  5 10  1  0  0  0  0
M  CHG  2  27   1  29  -1
M  END
>  <type>
systematic

$$$$
4-[[1-Hydroxy-2-oxo-2-[4-[3-(trifluoromethyl)phenoxy]phenyl]ethyl]amino]benzoic acid
  Mrv2401 11012421032D          

 31 33  0  0  0  0            999 V2000
    6.4302   -1.2375    0.0000 C   0  0  0  0  0  0  0  0  0  0  0  0
    6.4302   -0.4125    0.0000 C   0  0  0  0  0  0  0  0  0  0  0  0
    5.7158    0.0000    0.0000 O   0  0  0  0  0  0  0  0  0  0  0  0
    7.1447    0.0000    0.0000 O   0  0  0  0  0  0  0  0  0  0  0  0
    7.1447   -1.6500    0.0000 C   0  0  0  0  0  0  0  0  0  0  0  0
    7.1447   -2.4750    0.0000 C   0  0  0  0  0  0  0  0  0  0  0  0
    6.4302   -2.8875    0.0000 C   0  0  0  0  0  0  0  0  0  0  0  0
    5.7158   -2.4750    0.0000 C   0  0  0  0  0  0  0  0  0  0  0  0
    5.7158   -1.6500    0.0000 C   0  0  0  0  0  0  0  0  0  0  0  0
    6.4302   -3.7125    0.0000 N   0  0  0  0  0  0  0  0  0  0  0  0
    5.7158   -4.1250    0.0000 C   0  0  0  0  0  0  0  0  0  0  0  0
    5.7158   -4.9500    0.0000 C   0  0  0  0  0  0  0  0  0  0  0  0
    5.0013   -5.3625    0.0000 C   0  0  0  0  0  0  0  0  0  0  0  0
    5.0013   -6.1875    0.0000 C   0  0  0  0  0  0  0  0  0  0  0  0
    4.2868   -6.6000    0.0000 C   0  0  0  0  0  0  0  0  0  0  0  0
    3.5724   -6.1875    0.0000 C   0  0  0  0  0  0  0  0  0  0  0  0
    3.5724   -5.3625    0.0000 C   0  0  0  0  0  0  0  0  0  0  0  0
    4.2868   -4.9500    0.0000 C   0  0  0  0  0  0  0  0  0  0  0  0
    2.8579   -6.6000    0.0000 O   0  0  0  0  0  0  0  0  0  0  0  0
    2.1434   -6.1875    0.0000 C   0  0  0  0  0  0  0  0  0  0  0  0
    1.4289   -6.6000    0.0000 C   0  0  0  0  0  0  0  0  0  0  0  0
    0.7145   -6.1875    0.0000 C   0  0  0  0  0  0  0  0  0  0  0  0
    0.7145   -5.3625    0.0000 C   0  0  0  0  0  0  0  0  0  0  0  0
    1.4289   -4.9500    0.0000 C   0  0  0  0  0  0  0  0  0  0  0  0
    2.1434   -5.3625    0.0000 C   0  0  0  0  0  0  0  0  0  0  0  0
   -0.0000   -6.6000    0.0000 C   0  0  0  0  0  0  0  0  0  0  0  0
   -0.7145   -7.0125    0.0000 F   0  0  0  0  0  0  0  0  0  0  0  0
   -0.4125   -5.8855    0.0000 F   0  0  0  0  0  0  0  0  0  0  0  0
    0.4125   -7.3145    0.0000 F   0  0  0  0  0  0  0  0  0  0  0  0
    6.4302   -5.3625    0.0000 O   0  0  0  0  0  0  0  0  0  0  0  0
    5.0013   -3.7125    0.0000 O   0  0  0  0  0  0  0  0  0  0  0  0
  1  2  1  0  0  0  0
  2  3  1  0  0  0  0
  2  4  2  0  0  0  0
  1  5  2  0  0  0  0
  5  6  1  0  0  0  0
  6  7  2  0  0  0  0
  7  8  1  0  0  0  0
  8  9  2  0  0  0  0
  1  9  1  0  0  0  0
 11 12  1  0  0  0  0
 13 14  2  0  0  0  0
 14 15  1  0  0  0  0
 15 16  2  0  0  0  0
 16 17  1  0  0  0  0
 17 18  2  0  0  0  0
 13 18  1  0  0  0  0
 19 20  1  0  0  0  0
 20 21  2  0  0  0  0
 21 22  1  0  0  0  0
 22 23  2  0  0  0  0
 23 24  1  0  0  0  0
 24 25  2  0  0  0  0
 20 25  1  0  0  0  0
 26 27  1  0  0  0  0
 26 28  1  0  0  0  0
 26 29  1  0  0  0  0
 22 26  1  0  0  0  0
 16 19  1  0  0  0  0
 12 13  1  0  0  0  0
 12 30  2  0  0  0  0
 11 31  1  0  0  0  0
 10 11  1  0  0  0  0
  7 10  1  0  0  0  0
M  END
>  <type>
systematic

$$$$
2-[[2-Oxo-2-(2-oxo-2H-1-benzopyran-3-yl)ethyl]amino]benzoic acid
  Mrv2401 11012421042D          

 24 26  0  0  0  0            999 V2000
    5.0013   -1.2375    0.0000 C   0  0  0  0  0  0  0  0  0  0  0  0
    4.2868   -1.6500    0.0000 C   0  0  0  0  0  0  0  0  0  0  0  0
    4.2868   -2.4750    0.0000 O   0  0  0  0  0  0  0  0  0  0  0  0
    3.5724   -1.2375    0.0000 O   0  0  0  0  0  0  0  0  0  0  0  0
    5.0013   -0.4125    0.0000 C   0  0  0  0  0  0  0  0  0  0  0  0
    5.7158   -0.0000    0.0000 C   0  0  0  0  0  0  0  0  0  0  0  0
    6.4302   -0.4125    0.0000 C   0  0  0  0  0  0  0  0  0  0  0  0
    6.4302   -1.2375    0.0000 C   0  0  0  0  0  0  0  0  0  0  0  0
    5.7158   -1.6500    0.0000 C   0  0  0  0  0  0  0  0  0  0  0  0
    4.2868   -0.0000    0.0000 N   0  0  0  0  0  0  0  0  0  0  0  0
    3.5724   -0.4125    0.0000 C   0  0  0  0  0  0  0  0  0  0  0  0
    2.8579   -0.0000    0.0000 C   0  0  0  0  0  0  0  0  0  0  0  0
   -0.7145   -1.2375    0.0000 C   0  0  0  0  0  0  0  0  0  0  0  0
    0.0000   -1.6500    0.0000 C   0  0  0  0  0  0  0  0  0  0  0  0
    0.7145   -1.2375    0.0000 C   0  0  0  0  0  0  0  0  0  0  0  0
    0.7145   -0.4125    0.0000 C   0  0  0  0  0  0  0  0  0  0  0  0
    0.0000   -0.0000    0.0000 C   0  0  0  0  0  0  0  0  0  0  0  0
   -0.7145   -0.4125    0.0000 C   0  0  0  0  0  0  0  0  0  0  0  0
    1.4289   -0.0000    0.0000 C   0  0  0  0  0  0  0  0  0  0  0  0
    2.1434   -0.4125    0.0000 C   0  0  0  0  0  0  0  0  0  0  0  0
    2.1434   -1.2375    0.0000 C   0  0  0  0  0  0  0  0  0  0  0  0
    1.4289   -1.6500    0.0000 O   0  0  0  0  0  0  0  0  0  0  0  0
    2.8579   -1.6500    0.0000 O   0  0  0  0  0  0  0  0  0  0  0  0
    2.8579    0.8250    0.0000 O   0  0  0  0  0  0  0  0  0  0  0  0
  1  2  1  0  0  0  0
  2  3  1  0  0  0  0
  2  4  2  0  0  0  0
  1  5  2  0  0  0  0
  5  6  1  0  0  0  0
  6  7  2  0  0  0  0
  7  8  1  0  0  0  0
  8  9  2  0  0  0  0
  1  9  1  0  0  0  0
 11 12  1  0  0  0  0
 13 14  1  0  0  0  0
 14 15  2  0  0  0  0
 15 16  1  0  0  0  0
 16 17  2  0  0  0  0
 17 18  1  0  0  0  0
 13 18  2  0  0  0  0
 16 19  1  0  0  0  0
 19 20  2  0  0  0  0
 20 21  1  0  0  0  0
 21 22  1  0  0  0  0
 15 22  1  0  0  0  0
 21 23  2  0  0  0  0
 12 20  1  0  0  0  0
 12 24  2  0  0  0  0
 10 11  1  0  0  0  0
  5 10  1  0  0  0  0
M  END
>  <type>
systematic

$$$$
1-[[2-(4-Cyanophenyl)-2-hydroxyacetyl]amino]cyclohexanecarboxylic acid
  Mrv2401 11012421042D          

 22 23  0  0  0  0            999 V2000
    2.9679   -2.0913    0.0000 C   0  0  0  0  0  0  0  0  0  0  0  0
    2.2534   -2.5038    0.0000 C   0  0  0  0  0  0  0  0  0  0  0  0
    2.2534   -3.3288    0.0000 C   0  0  0  0  0  0  0  0  0  0  0  0
    2.9679   -3.7413    0.0000 C   0  0  0  0  0  0  0  0  0  0  0  0
    3.6824   -3.3288    0.0000 C   0  0  0  0  0  0  0  0  0  0  0  0
    3.6824   -2.5038    0.0000 C   0  0  0  0  0  0  0  0  0  0  0  0
    2.5806   -1.3629    0.0000 C   0  0  0  0  0  0  0  0  0  0  0  0
    3.0178   -0.6632    0.0000 O   0  0  0  0  0  0  0  0  0  0  0  0
    1.7561   -1.3341    0.0000 O   0  0  0  0  0  0  0  0  0  0  0  0
    3.3552   -1.3629    0.0000 N   0  0  0  0  0  0  0  0  0  0  0  0
    4.1797   -1.3341    0.0000 C   0  0  0  0  0  0  0  0  0  0  0  0
    4.6169   -2.0337    0.0000 O   0  0  0  0  0  0  0  0  0  0  0  0
    4.5670   -0.6056    0.0000 C   0  0  0  0  0  0  0  0  0  0  0  0
    4.1299    0.0940    0.0000 O   0  0  0  0  0  0  0  0  0  0  0  0
    5.3915   -0.5768    0.0000 C   0  0  0  0  0  0  0  0  0  0  0  0
    5.7788    0.1516    0.0000 C   0  0  0  0  0  0  0  0  0  0  0  0
    6.6033    0.1804    0.0000 C   0  0  0  0  0  0  0  0  0  0  0  0
    7.0405   -0.5193    0.0000 C   0  0  0  0  0  0  0  0  0  0  0  0
    6.6532   -1.2477    0.0000 C   0  0  0  0  0  0  0  0  0  0  0  0
    5.8287   -1.2765    0.0000 C   0  0  0  0  0  0  0  0  0  0  0  0
    7.8650   -0.4905    0.0000 C   0  0  0  0  0  0  0  0  0  0  0  0
    8.6895   -0.4617    0.0000 N   0  0  0  0  0  0  0  0  0  0  0  0
  1  2  1  0  0  0  0
  2  3  1  0  0  0  0
  3  4  1  0  0  0  0
  4  5  1  0  0  0  0
  5  6  1  0  0  0  0
  1  6  1  0  0  0  0
  7  8  1  0  0  0  0
  7  9  2  0  0  0  0
  1  7  1  0  0  0  0
 11 12  2  0  0  0  0
 11 13  1  0  0  0  0
 13 14  1  0  0  0  0
 15 16  2  0  0  0  0
 16 17  1  0  0  0  0
 17 18  2  0  0  0  0
 18 19  1  0  0  0  0
 19 20  2  0  0  0  0
 15 20  1  0  0  0  0
 21 22  3  0  0  0  0
 18 21  1  0  0  0  0
 13 15  1  0  0  0  0
 10 11  1  0  0  0  0
  1 10  1  0  0  0  0
M  END
>  <type>
systematic

$$$$
4-[(3-methoxyphenyl)hydrazido]-3-nitrobenzoic acid
  Mrv2401 11012421062D          

 24 25  0  0  0  0            999 V2000
    2.8579   -2.4750    0.0000 C   0  0  0  0  0  0  0  0  0  0  0  0
    2.8579   -1.6500    0.0000 C   0  0  0  0  0  0  0  0  0  0  0  0
    2.1434   -1.2375    0.0000 O   0  0  0  0  0  0  0  0  0  0  0  0
    3.5724   -1.2375    0.0000 O   0  0  0  0  0  0  0  0  0  0  0  0
    3.5724   -2.8875    0.0000 C   0  0  0  0  0  0  0  0  0  0  0  0
    3.5724   -3.7125    0.0000 C   0  0  0  0  0  0  0  0  0  0  0  0
    2.8579   -4.1250    0.0000 C   0  0  0  0  0  0  0  0  0  0  0  0
    2.1434   -3.7125    0.0000 C   0  0  0  0  0  0  0  0  0  0  0  0
    2.1434   -2.8875    0.0000 C   0  0  0  0  0  0  0  0  0  0  0  0
    4.2868   -4.1250    0.0000 N   0  3  0  0  0  0  0  0  0  0  0  0
    4.2868   -4.9500    0.0000 O   0  0  0  0  0  0  0  0  0  0  0  0
    5.0013   -3.7125    0.0000 O   0  5  0  0  0  0  0  0  0  0  0  0
    1.4289   -6.6000    0.0000 C   0  0  0  0  0  0  0  0  0  0  0  0
    1.4289   -7.4250    0.0000 C   0  0  0  0  0  0  0  0  0  0  0  0
    0.7145   -7.8375    0.0000 C   0  0  0  0  0  0  0  0  0  0  0  0
    0.0000   -7.4250    0.0000 C   0  0  0  0  0  0  0  0  0  0  0  0
    0.0000   -6.6000    0.0000 C   0  0  0  0  0  0  0  0  0  0  0  0
    0.7145   -6.1875    0.0000 C   0  0  0  0  0  0  0  0  0  0  0  0
    2.1434   -6.1875    0.0000 C   0  0  0  0  0  0  0  0  0  0  0  0
    2.8579   -6.6000    0.0000 O   0  0  0  0  0  0  0  0  0  0  0  0
    2.1434   -5.3625    0.0000 N   0  0  0  0  0  0  0  0  0  0  0  0
    2.8579   -4.9500    0.0000 N   0  0  0  0  0  0  0  0  0  0  0  0
    0.7145   -8.6625    0.0000 O   0  0  0  0  0  0  0  0  0  0  0  0
    1.4289   -9.0750    0.0000 C   0  0  0  0  0  0  0  0  0  0  0  0
  1  2  1  0  0  0  0
  2  3  1  0  0  0  0
  2  4  2  0  0  0  0
  1  5  2  0  0  0  0
  5  6  1  0  0  0  0
  6  7  2  0  0  0  0
  7  8  1  0  0  0  0
  8  9  2  0  0  0  0
  1  9  1  0  0  0  0
 10 11  2  0  0  0  0
 10 12  1  0  0  0  0
  6 10  1  0  0  0  0
 13 14  2  0  0  0  0
 14 15  1  0  0  0  0
 15 16  2  0  0  0  0
 16 17  1  0  0  0  0
 17 18  2  0  0  0  0
 13 18  1  0  0  0  0
 19 20  2  0  0  0  0
 19 21  1  0  0  0  0
 21 22  1  0  0  0  0
 13 19  1  0  0  0  0
 23 24  1  0  0  0  0
 15 23  1  0  0  0  0
  7 22  1  0  0  0  0
M  CHG  2  10   1  12  -1
M  END
>  <type>
systematic

$$$$
4-[2-(4-Fluorobenzoyl)hydrazinyl]-3-nitrobenzoic acid
  Mrv2401 11012421062D          

 23 24  0  0  0  0            999 V2000
    2.8579   -2.4750    0.0000 C   0  0  0  0  0  0  0  0  0  0  0  0
    2.8579   -1.6500    0.0000 C   0  0  0  0  0  0  0  0  0  0  0  0
    2.1434   -1.2375    0.0000 O   0  0  0  0  0  0  0  0  0  0  0  0
    3.5724   -1.2375    0.0000 O   0  0  0  0  0  0  0  0  0  0  0  0
    3.5724   -2.8875    0.0000 C   0  0  0  0  0  0  0  0  0  0  0  0
    3.5724   -3.7125    0.0000 C   0  0  0  0  0  0  0  0  0  0  0  0
    2.8579   -4.1250    0.0000 C   0  0  0  0  0  0  0  0  0  0  0  0
    2.1434   -3.7125    0.0000 C   0  0  0  0  0  0  0  0  0  0  0  0
    2.1434   -2.8875    0.0000 C   0  0  0  0  0  0  0  0  0  0  0  0
    4.2868   -4.1250    0.0000 N   0  3  0  0  0  0  0  0  0  0  0  0
    4.2868   -4.9500    0.0000 O   0  0  0  0  0  0  0  0  0  0  0  0
    5.0013   -3.7125    0.0000 O   0  5  0  0  0  0  0  0  0  0  0  0
    2.8579   -4.9500    0.0000 N   0  0  0  0  0  0  0  0  0  0  0  0
    2.1434   -5.3625    0.0000 N   0  0  0  0  0  0  0  0  0  0  0  0
    2.1434   -6.1875    0.0000 C   0  0  0  0  0  0  0  0  0  0  0  0
    2.8579   -6.6000    0.0000 O   0  0  0  0  0  0  0  0  0  0  0  0
    1.4289   -6.6000    0.0000 C   0  0  0  0  0  0  0  0  0  0  0  0
    1.4289   -7.4250    0.0000 C   0  0  0  0  0  0  0  0  0  0  0  0
    0.7145   -7.8375    0.0000 C   0  0  0  0  0  0  0  0  0  0  0  0
    0.0000   -7.4250    0.0000 C   0  0  0  0  0  0  0  0  0  0  0  0
    0.0000   -6.6000    0.0000 C   0  0  0  0  0  0  0  0  0  0  0  0
    0.7145   -6.1875    0.0000 C   0  0  0  0  0  0  0  0  0  0  0  0
   -0.7145   -7.8375    0.0000 F   0  0  0  0  0  0  0  0  0  0  0  0
  1  2  1  0  0  0  0
  2  3  1  0  0  0  0
  2  4  2  0  0  0  0
  1  5  2  0  0  0  0
  5  6  1  0  0  0  0
  6  7  2  0  0  0  0
  7  8  1  0  0  0  0
  8  9  2  0  0  0  0
  1  9  1  0  0  0  0
 10 11  2  0  0  0  0
 10 12  1  0  0  0  0
  6 10  1  0  0  0  0
 13 14  1  0  0  0  0
 15 16  2  0  0  0  0
 15 17  1  0  0  0  0
 17 18  2  0  0  0  0
 18 19  1  0  0  0  0
 19 20  2  0  0  0  0
 20 21  1  0  0  0  0
 21 22  2  0  0  0  0
 17 22  1  0  0  0  0
 20 23  1  0  0  0  0
 14 15  1  0  0  0  0
  7 13  1  0  0  0  0
M  CHG  2  10   1  12  -1
M  END
>  <type>
systematic

$$$$
4-[2-(4-Chlorobenzoyl)hydrazinyl]-3-nitrobenzoic acid
  Mrv2401 11012421072D          

 23 24  0  0  0  0            999 V2000
    2.8579   -2.4750    0.0000 C   0  0  0  0  0  0  0  0  0  0  0  0
    2.8579   -1.6500    0.0000 C   0  0  0  0  0  0  0  0  0  0  0  0
    2.1434   -1.2375    0.0000 O   0  0  0  0  0  0  0  0  0  0  0  0
    3.5724   -1.2375    0.0000 O   0  0  0  0  0  0  0  0  0  0  0  0
    3.5724   -2.8875    0.0000 C   0  0  0  0  0  0  0  0  0  0  0  0
    3.5724   -3.7125    0.0000 C   0  0  0  0  0  0  0  0  0  0  0  0
    2.8579   -4.1250    0.0000 C   0  0  0  0  0  0  0  0  0  0  0  0
    2.1434   -3.7125    0.0000 C   0  0  0  0  0  0  0  0  0  0  0  0
    2.1434   -2.8875    0.0000 C   0  0  0  0  0  0  0  0  0  0  0  0
    4.2868   -4.1250    0.0000 N   0  3  0  0  0  0  0  0  0  0  0  0
    4.2868   -4.9500    0.0000 O   0  0  0  0  0  0  0  0  0  0  0  0
    5.0013   -3.7125    0.0000 O   0  5  0  0  0  0  0  0  0  0  0  0
    2.8579   -4.9500    0.0000 N   0  0  0  0  0  0  0  0  0  0  0  0
    2.1434   -5.3625    0.0000 N   0  0  0  0  0  0  0  0  0  0  0  0
    2.1434   -6.1875    0.0000 C   0  0  0  0  0  0  0  0  0  0  0  0
    2.8579   -6.6000    0.0000 O   0  0  0  0  0  0  0  0  0  0  0  0
    1.4289   -6.6000    0.0000 C   0  0  0  0  0  0  0  0  0  0  0  0
    1.4289   -7.4250    0.0000 C   0  0  0  0  0  0  0  0  0  0  0  0
    0.7145   -7.8375    0.0000 C   0  0  0  0  0  0  0  0  0  0  0  0
    0.0000   -7.4250    0.0000 C   0  0  0  0  0  0  0  0  0  0  0  0
    0.0000   -6.6000    0.0000 C   0  0  0  0  0  0  0  0  0  0  0  0
    0.7145   -6.1875    0.0000 C   0  0  0  0  0  0  0  0  0  0  0  0
   -0.7145   -7.8375    0.0000 Cl  0  0  0  0  0  0  0  0  0  0  0  0
  1  2  1  0  0  0  0
  2  3  1  0  0  0  0
  2  4  2  0  0  0  0
  1  5  2  0  0  0  0
  5  6  1  0  0  0  0
  6  7  2  0  0  0  0
  7  8  1  0  0  0  0
  8  9  2  0  0  0  0
  1  9  1  0  0  0  0
 10 11  2  0  0  0  0
 10 12  1  0  0  0  0
  6 10  1  0  0  0  0
 13 14  1  0  0  0  0
 15 16  2  0  0  0  0
 15 17  1  0  0  0  0
 17 18  2  0  0  0  0
 18 19  1  0  0  0  0
 19 20  2  0  0  0  0
 20 21  1  0  0  0  0
 21 22  2  0  0  0  0
 17 22  1  0  0  0  0
 20 23  1  0  0  0  0
 14 15  1  0  0  0  0
  7 13  1  0  0  0  0
M  CHG  2  10   1  12  -1
M  END
>  <type>
systematic

$$$$
5-[(2-Oxo-2-phenylethyl)amino]-1-phenyl-1H-pyrazole-3-carboxylic acid
  Mrv2401 11012421092D          

 24 26  0  0  0  0            999 V2000
    2.7512   -2.5366    0.0000 N   0  0  0  0  0  0  0  0  0  0  0  0
    3.4186   -3.0215    0.0000 N   0  0  0  0  0  0  0  0  0  0  0  0
    3.1637   -3.8062    0.0000 C   0  0  0  0  0  0  0  0  0  0  0  0
    2.3387   -3.8062    0.0000 C   0  0  0  0  0  0  0  0  0  0  0  0
    2.0837   -3.0215    0.0000 C   0  0  0  0  0  0  0  0  0  0  0  0
    3.6486   -4.4736    0.0000 C   0  0  0  0  0  0  0  0  0  0  0  0
    3.3130   -5.2273    0.0000 O   0  0  0  0  0  0  0  0  0  0  0  0
    4.4691   -4.3874    0.0000 O   0  0  0  0  0  0  0  0  0  0  0  0
    2.7512   -1.7116    0.0000 C   0  0  0  0  0  0  0  0  0  0  0  0
    2.0367   -1.2991    0.0000 C   0  0  0  0  0  0  0  0  0  0  0  0
    2.0367   -0.4741    0.0000 C   0  0  0  0  0  0  0  0  0  0  0  0
    2.7512   -0.0616    0.0000 C   0  0  0  0  0  0  0  0  0  0  0  0
    3.4656   -0.4741    0.0000 C   0  0  0  0  0  0  0  0  0  0  0  0
    3.4656   -1.2991    0.0000 C   0  0  0  0  0  0  0  0  0  0  0  0
    1.2991   -2.7666    0.0000 N   0  0  0  0  0  0  0  0  0  0  0  0
    1.1276   -1.9596    0.0000 C   0  0  0  0  0  0  0  0  0  0  0  0
    0.3430   -1.7047    0.0000 C   0  0  0  0  0  0  0  0  0  0  0  0
    0.1714   -0.8977    0.0000 C   0  0  0  0  0  0  0  0  0  0  0  0
   -0.6132   -0.6428    0.0000 C   0  0  0  0  0  0  0  0  0  0  0  0
   -0.7847    0.1642    0.0000 C   0  0  0  0  0  0  0  0  0  0  0  0
   -0.1716    0.7162    0.0000 C   0  0  0  0  0  0  0  0  0  0  0  0
    0.6130    0.4613    0.0000 C   0  0  0  0  0  0  0  0  0  0  0  0
    0.7845   -0.3457    0.0000 C   0  0  0  0  0  0  0  0  0  0  0  0
   -0.2701   -2.2567    0.0000 O   0  0  0  0  0  0  0  0  0  0  0  0
  1  2  1  0  0  0  0
  2  3  2  0  0  0  0
  3  4  1  0  0  0  0
  4  5  2  0  0  0  0
  1  5  1  0  0  0  0
  6  7  1  0  0  0  0
  6  8  2  0  0  0  0
  3  6  1  0  0  0  0
  9 10  2  0  0  0  0
 10 11  1  0  0  0  0
 11 12  2  0  0  0  0
 12 13  1  0  0  0  0
 13 14  2  0  0  0  0
  9 14  1  0  0  0  0
  1  9  1  0  0  0  0
 16 17  1  0  0  0  0
 18 19  2  0  0  0  0
 19 20  1  0  0  0  0
 20 21  2  0  0  0  0
 21 22  1  0  0  0  0
 22 23  2  0  0  0  0
 18 23  1  0  0  0  0
 17 18  1  0  0  0  0
 17 24  2  0  0  0  0
 15 16  1  0  0  0  0
  5 15  1  0  0  0  0
M  END
>  <type>
systematic

$$$$
4-[[2-[(2S,4S)-2-Cyano-4-fluoro-1-pyrrolidinyl]-2-oxoethyl]amino]bicyclo[2.2.2]octane-1-carboxylic acid
  Mrv2401 11012421102D          

 23 25  0  0  1  0            999 V2000
    0.8106   -0.2459    0.0000 C   0  0  0  0  0  0  0  0  0  0  0  0
    0.0962    0.1666    0.0000 C   0  0  0  0  0  0  0  0  0  0  0  0
    0.0962    0.9916    0.0000 C   0  0  0  0  0  0  0  0  0  0  0  0
    1.5251    0.1666    0.0000 C   0  0  0  0  0  0  0  0  0  0  0  0
    1.5251    0.9916    0.0000 C   0  0  0  0  0  0  0  0  0  0  0  0
    0.8106    1.4041    0.0000 C   0  0  0  0  0  0  0  0  0  0  0  0
    0.9481    0.8541    0.0000 C   0  0  0  0  0  0  0  0  0  0  0  0
    0.9481    0.3041    0.0000 C   0  0  0  0  0  0  0  0  0  0  0  0
    0.8106   -1.0709    0.0000 C   0  0  0  0  0  0  0  0  0  0  0  0
    0.0962   -1.4834    0.0000 O   0  0  0  0  0  0  0  0  0  0  0  0
    1.5251   -1.4834    0.0000 O   0  0  0  0  0  0  0  0  0  0  0  0
    0.8106    2.2291    0.0000 N   0  0  0  0  0  0  0  0  0  0  0  0
    0.0962    2.6416    0.0000 C   0  0  0  0  0  0  0  0  0  0  0  0
    0.0962    3.4666    0.0000 C   0  0  0  0  0  0  0  0  0  0  0  0
    0.8106    3.8791    0.0000 O   0  0  0  0  0  0  0  0  0  0  0  0
   -0.6183    3.8791    0.0000 N   0  0  0  0  0  0  0  0  0  0  0  0
   -1.3720    3.5435    0.0000 C   0  0  1  0  0  0  0  0  0  0  0  0
   -1.9240    4.1566    0.0000 C   0  0  0  0  0  0  0  0  0  0  0  0
   -1.5115    4.8711    0.0000 C   0  0  1  0  0  0  0  0  0  0  0  0
   -0.7045    4.6995    0.0000 C   0  0  0  0  0  0  0  0  0  0  0  0
   -1.8471    5.6247    0.0000 F   0  0  0  0  0  0  0  0  0  0  0  0
   -1.5435    2.7365    0.0000 C   0  0  0  0  0  0  0  0  0  0  0  0
   -1.7150    1.9296    0.0000 N   0  0  0  0  0  0  0  0  0  0  0  0
  1  2  1  0  0  0  0
  2  3  1  0  0  0  0
  1  4  1  0  0  0  0
  4  5  1  0  0  0  0
  5  6  1  0  0  0  0
  3  6  1  0  0  0  0
  6  7  1  0  0  0  0
  7  8  1  0  0  0  0
  1  8  1  0  0  0  0
  9 10  1  0  0  0  0
  9 11  2  0  0  0  0
  1  9  1  0  0  0  0
 13 14  1  0  0  0  0
 14 15  2  0  0  0  0
 17 16  1  0  0  0  0
 17 18  1  0  0  0  0
 19 18  1  0  0  0  0
 19 20  1  0  0  0  0
 16 20  1  0  0  0  0
 19 21  1  6  0  0  0
 22 23  3  0  0  0  0
 17 22  1  6  0  0  0
 14 16  1  0  0  0  0
 12 13  1  0  0  0  0
  6 12  1  0  0  0  0
M  END
>  <type>
systematic

$$$$
4-[[2-(4-Fluorophenyl)-2-oxo-1-(1-piperidinyl)ethyl]amino]-2-hydroxybenzoic acid
  Mrv2401 11012421112D          

 27 29  0  0  0  0            999 V2000
    2.8579   -2.4750    0.0000 C   0  0  0  0  0  0  0  0  0  0  0  0
    2.8579   -1.6500    0.0000 C   0  0  0  0  0  0  0  0  0  0  0  0
    2.1434   -1.2375    0.0000 O   0  0  0  0  0  0  0  0  0  0  0  0
    3.5724   -1.2375    0.0000 O   0  0  0  0  0  0  0  0  0  0  0  0
    3.5724   -2.8875    0.0000 C   0  0  0  0  0  0  0  0  0  0  0  0
    3.5724   -3.7125    0.0000 C   0  0  0  0  0  0  0  0  0  0  0  0
    2.8579   -4.1250    0.0000 C   0  0  0  0  0  0  0  0  0  0  0  0
    2.1434   -3.7125    0.0000 C   0  0  0  0  0  0  0  0  0  0  0  0
    2.1434   -2.8875    0.0000 C   0  0  0  0  0  0  0  0  0  0  0  0
    4.2868   -2.4750    0.0000 O   0  0  0  0  0  0  0  0  0  0  0  0
    2.8579   -4.9500    0.0000 N   0  0  0  0  0  0  0  0  0  0  0  0
    2.1434   -5.3625    0.0000 C   0  0  0  0  0  0  0  0  0  0  0  0
    2.1434   -6.1875    0.0000 C   0  0  0  0  0  0  0  0  0  0  0  0
    0.0000   -4.1250    0.0000 C   0  0  0  0  0  0  0  0  0  0  0  0
    0.7145   -3.7125    0.0000 C   0  0  0  0  0  0  0  0  0  0  0  0
    1.4289   -4.1250    0.0000 C   0  0  0  0  0  0  0  0  0  0  0  0
    1.4289   -4.9500    0.0000 N   0  0  0  0  0  0  0  0  0  0  0  0
    0.7145   -5.3625    0.0000 C   0  0  0  0  0  0  0  0  0  0  0  0
    0.0000   -4.9500    0.0000 C   0  0  0  0  0  0  0  0  0  0  0  0
    2.8579   -6.6000    0.0000 O   0  0  0  0  0  0  0  0  0  0  0  0
    1.4289   -6.6000    0.0000 C   0  0  0  0  0  0  0  0  0  0  0  0
    1.4289   -7.4250    0.0000 C   0  0  0  0  0  0  0  0  0  0  0  0
    0.7145   -7.8375    0.0000 C   0  0  0  0  0  0  0  0  0  0  0  0
    0.0000   -7.4250    0.0000 C   0  0  0  0  0  0  0  0  0  0  0  0
    0.0000   -6.6000    0.0000 C   0  0  0  0  0  0  0  0  0  0  0  0
    0.7145   -6.1875    0.0000 C   0  0  0  0  0  0  0  0  0  0  0  0
   -0.7145   -7.8375    0.0000 F   0  0  0  0  0  0  0  0  0  0  0  0
  1  2  1  0  0  0  0
  2  3  1  0  0  0  0
  2  4  2  0  0  0  0
  1  5  2  0  0  0  0
  5  6  1  0  0  0  0
  6  7  2  0  0  0  0
  7  8  1  0  0  0  0
  8  9  2  0  0  0  0
  1  9  1  0  0  0  0
  5 10  1  0  0  0  0
 12 13  1  0  0  0  0
 14 15  1  0  0  0  0
 15 16  1  0  0  0  0
 16 17  1  0  0  0  0
 17 18  1  0  0  0  0
 18 19  1  0  0  0  0
 14 19  1  0  0  0  0
 12 17  1  0  0  0  0
 13 20  2  0  0  0  0
 21 22  2  0  0  0  0
 22 23  1  0  0  0  0
 23 24  2  0  0  0  0
 24 25  1  0  0  0  0
 25 26  2  0  0  0  0
 21 26  1  0  0  0  0
 24 27  1  0  0  0  0
 13 21  1  0  0  0  0
 11 12  1  0  0  0  0
  7 11  1  0  0  0  0
M  END
>  <type>
systematic

$$$$
4-[2-(2-Chlorobenzoyl)hydrazinyl]-3-nitrobenzoic acid
  Mrv2401 11012421132D          

 23 24  0  0  0  0            999 V2000
    2.8579   -2.4750    0.0000 C   0  0  0  0  0  0  0  0  0  0  0  0
    2.8579   -1.6500    0.0000 C   0  0  0  0  0  0  0  0  0  0  0  0
    2.1434   -1.2375    0.0000 O   0  0  0  0  0  0  0  0  0  0  0  0
    3.5724   -1.2375    0.0000 O   0  0  0  0  0  0  0  0  0  0  0  0
    3.5724   -2.8875    0.0000 C   0  0  0  0  0  0  0  0  0  0  0  0
    3.5724   -3.7125    0.0000 C   0  0  0  0  0  0  0  0  0  0  0  0
    2.8579   -4.1250    0.0000 C   0  0  0  0  0  0  0  0  0  0  0  0
    2.1434   -3.7125    0.0000 C   0  0  0  0  0  0  0  0  0  0  0  0
    2.1434   -2.8875    0.0000 C   0  0  0  0  0  0  0  0  0  0  0  0
    4.2868   -4.1250    0.0000 N   0  3  0  0  0  0  0  0  0  0  0  0
    4.2868   -4.9500    0.0000 O   0  0  0  0  0  0  0  0  0  0  0  0
    5.0013   -3.7125    0.0000 O   0  5  0  0  0  0  0  0  0  0  0  0
    2.8579   -4.9500    0.0000 N   0  0  0  0  0  0  0  0  0  0  0  0
    2.1434   -5.3625    0.0000 N   0  0  0  0  0  0  0  0  0  0  0  0
    2.1434   -6.1875    0.0000 C   0  0  0  0  0  0  0  0  0  0  0  0
    2.8579   -6.6000    0.0000 O   0  0  0  0  0  0  0  0  0  0  0  0
    1.4289   -6.6000    0.0000 C   0  0  0  0  0  0  0  0  0  0  0  0
    1.4289   -7.4250    0.0000 C   0  0  0  0  0  0  0  0  0  0  0  0
    0.7145   -7.8375    0.0000 C   0  0  0  0  0  0  0  0  0  0  0  0
    0.0000   -7.4250    0.0000 C   0  0  0  0  0  0  0  0  0  0  0  0
    0.0000   -6.6000    0.0000 C   0  0  0  0  0  0  0  0  0  0  0  0
    0.7145   -6.1875    0.0000 C   0  0  0  0  0  0  0  0  0  0  0  0
    2.1434   -7.8375    0.0000 Cl  0  0  0  0  0  0  0  0  0  0  0  0
  1  2  1  0  0  0  0
  2  3  1  0  0  0  0
  2  4  2  0  0  0  0
  1  5  2  0  0  0  0
  5  6  1  0  0  0  0
  6  7  2  0  0  0  0
  7  8  1  0  0  0  0
  8  9  2  0  0  0  0
  1  9  1  0  0  0  0
 10 11  2  0  0  0  0
 10 12  1  0  0  0  0
  6 10  1  0  0  0  0
 13 14  1  0  0  0  0
 15 16  2  0  0  0  0
 15 17  1  0  0  0  0
 17 18  2  0  0  0  0
 18 19  1  0  0  0  0
 19 20  2  0  0  0  0
 20 21  1  0  0  0  0
 21 22  2  0  0  0  0
 17 22  1  0  0  0  0
 18 23  1  0  0  0  0
 14 15  1  0  0  0  0
  7 13  1  0  0  0  0
M  CHG  2  10   1  12  -1
M  END
>  <type>
systematic

$$$$
4-[2-[4-(Dimethylamino)benzoyl]hydrazinyl]-3-nitrobenzoic acid
  Mrv2401 11012421162D          

 25 26  0  0  0  0            999 V2000
    2.8579   -2.4750    0.0000 C   0  0  0  0  0  0  0  0  0  0  0  0
    2.8579   -1.6500    0.0000 C   0  0  0  0  0  0  0  0  0  0  0  0
    3.5724   -1.2375    0.0000 O   0  0  0  0  0  0  0  0  0  0  0  0
    2.1434   -1.2375    0.0000 O   0  0  0  0  0  0  0  0  0  0  0  0
    3.5724   -2.8875    0.0000 C   0  0  0  0  0  0  0  0  0  0  0  0
    3.5724   -3.7125    0.0000 C   0  0  0  0  0  0  0  0  0  0  0  0
    2.8579   -4.1250    0.0000 C   0  0  0  0  0  0  0  0  0  0  0  0
    2.1434   -3.7125    0.0000 C   0  0  0  0  0  0  0  0  0  0  0  0
    2.1434   -2.8875    0.0000 C   0  0  0  0  0  0  0  0  0  0  0  0
    4.2868   -4.1250    0.0000 N   0  3  0  0  0  0  0  0  0  0  0  0
    4.2868   -4.9500    0.0000 O   0  0  0  0  0  0  0  0  0  0  0  0
    5.0013   -3.7125    0.0000 O   0  5  0  0  0  0  0  0  0  0  0  0
    2.8579   -4.9500    0.0000 N   0  0  0  0  0  0  0  0  0  0  0  0
    2.1434   -5.3625    0.0000 N   0  0  0  0  0  0  0  0  0  0  0  0
    2.1434   -6.1875    0.0000 C   0  0  0  0  0  0  0  0  0  0  0  0
    2.8579   -6.6000    0.0000 O   0  0  0  0  0  0  0  0  0  0  0  0
    1.4289   -6.6000    0.0000 C   0  0  0  0  0  0  0  0  0  0  0  0
    1.4289   -7.4250    0.0000 C   0  0  0  0  0  0  0  0  0  0  0  0
    0.7145   -7.8375    0.0000 C   0  0  0  0  0  0  0  0  0  0  0  0
    0.0000   -7.4250    0.0000 C   0  0  0  0  0  0  0  0  0  0  0  0
    0.0000   -6.6000    0.0000 C   0  0  0  0  0  0  0  0  0  0  0  0
    0.7145   -6.1875    0.0000 C   0  0  0  0  0  0  0  0  0  0  0  0
   -0.7145   -7.8375    0.0000 N   0  0  0  0  0  0  0  0  0  0  0  0
   -0.7145   -8.6625    0.0000 C   0  0  0  0  0  0  0  0  0  0  0  0
   -1.4289   -7.4250    0.0000 C   0  0  0  0  0  0  0  0  0  0  0  0
  1  2  1  0  0  0  0
  2  3  1  0  0  0  0
  2  4  2  0  0  0  0
  1  5  2  0  0  0  0
  5  6  1  0  0  0  0
  6  7  2  0  0  0  0
  7  8  1  0  0  0  0
  8  9  2  0  0  0  0
  1  9  1  0  0  0  0
 10 11  2  0  0  0  0
 10 12  1  0  0  0  0
  6 10  1  0  0  0  0
 13 14  1  0  0  0  0
 15 16  2  0  0  0  0
 15 17  1  0  0  0  0
 17 18  2  0  0  0  0
 18 19  1  0  0  0  0
 19 20  2  0  0  0  0
 20 21  1  0  0  0  0
 21 22  2  0  0  0  0
 17 22  1  0  0  0  0
 23 24  1  0  0  0  0
 23 25  1  0  0  0  0
 20 23  1  0  0  0  0
 14 15  1  0  0  0  0
  7 13  1  0  0  0  0
M  CHG  2  10   1  12  -1
M  END
>  <type>
systematic

$$$$
4-[2-(2-Fluorobenzoyl)hydrazinyl]-3-nitrobenzoic acid
  Mrv2401 11012421172D          

 23 24  0  0  0  0            999 V2000
    2.8579   -2.4750    0.0000 C   0  0  0  0  0  0  0  0  0  0  0  0
    2.8579   -1.6500    0.0000 C   0  0  0  0  0  0  0  0  0  0  0  0
    2.1434   -1.2375    0.0000 O   0  0  0  0  0  0  0  0  0  0  0  0
    3.5724   -1.2375    0.0000 O   0  0  0  0  0  0  0  0  0  0  0  0
    3.5724   -2.8875    0.0000 C   0  0  0  0  0  0  0  0  0  0  0  0
    3.5724   -3.7125    0.0000 C   0  0  0  0  0  0  0  0  0  0  0  0
    2.8579   -4.1250    0.0000 C   0  0  0  0  0  0  0  0  0  0  0  0
    2.1434   -3.7125    0.0000 C   0  0  0  0  0  0  0  0  0  0  0  0
    2.1434   -2.8875    0.0000 C   0  0  0  0  0  0  0  0  0  0  0  0
    4.2868   -4.1250    0.0000 N   0  3  0  0  0  0  0  0  0  0  0  0
    4.2868   -4.9500    0.0000 O   0  0  0  0  0  0  0  0  0  0  0  0
    5.0013   -3.7125    0.0000 O   0  5  0  0  0  0  0  0  0  0  0  0
    2.8579   -4.9500    0.0000 N   0  0  0  0  0  0  0  0  0  0  0  0
    2.1434   -5.3625    0.0000 N   0  0  0  0  0  0  0  0  0  0  0  0
    2.1434   -6.1875    0.0000 C   0  0  0  0  0  0  0  0  0  0  0  0
    2.8579   -6.6000    0.0000 O   0  0  0  0  0  0  0  0  0  0  0  0
    1.4289   -6.6000    0.0000 C   0  0  0  0  0  0  0  0  0  0  0  0
    1.4289   -7.4250    0.0000 C   0  0  0  0  0  0  0  0  0  0  0  0
    0.7145   -7.8375    0.0000 C   0  0  0  0  0  0  0  0  0  0  0  0
    0.0000   -7.4250    0.0000 C   0  0  0  0  0  0  0  0  0  0  0  0
    0.0000   -6.6000    0.0000 C   0  0  0  0  0  0  0  0  0  0  0  0
    0.7145   -6.1875    0.0000 C   0  0  0  0  0  0  0  0  0  0  0  0
    2.1434   -7.8375    0.0000 F   0  0  0  0  0  0  0  0  0  0  0  0
  1  2  1  0  0  0  0
  2  3  1  0  0  0  0
  2  4  2  0  0  0  0
  1  5  2  0  0  0  0
  5  6  1  0  0  0  0
  6  7  2  0  0  0  0
  7  8  1  0  0  0  0
  8  9  2  0  0  0  0
  1  9  1  0  0  0  0
 10 11  2  0  0  0  0
 10 12  1  0  0  0  0
  6 10  1  0  0  0  0
 13 14  1  0  0  0  0
 15 16  2  0  0  0  0
 15 17  1  0  0  0  0
 17 18  2  0  0  0  0
 18 19  1  0  0  0  0
 19 20  2  0  0  0  0
 20 21  1  0  0  0  0
 21 22  2  0  0  0  0
 17 22  1  0  0  0  0
 18 23  1  0  0  0  0
 14 15  1  0  0  0  0
  7 13  1  0  0  0  0
M  CHG  2  10   1  12  -1
M  END
>  <type>
systematic

$$$$
1-[[2-(4-Bromophenyl)-2-hydroxyacetyl]amino]cyclohexanecarboxylic acid
  Mrv2401 11012421182D          

 21 22  0  0  0  0            999 V2000
    2.9679   -2.0913    0.0000 C   0  0  0  0  0  0  0  0  0  0  0  0
    2.2534   -2.5038    0.0000 C   0  0  0  0  0  0  0  0  0  0  0  0
    2.2534   -3.3288    0.0000 C   0  0  0  0  0  0  0  0  0  0  0  0
    2.9679   -3.7413    0.0000 C   0  0  0  0  0  0  0  0  0  0  0  0
    3.6824   -3.3288    0.0000 C   0  0  0  0  0  0  0  0  0  0  0  0
    3.6824   -2.5038    0.0000 C   0  0  0  0  0  0  0  0  0  0  0  0
    2.5806   -1.3629    0.0000 C   0  0  0  0  0  0  0  0  0  0  0  0
    3.0178   -0.6632    0.0000 O   0  0  0  0  0  0  0  0  0  0  0  0
    1.7561   -1.3341    0.0000 O   0  0  0  0  0  0  0  0  0  0  0  0
    3.3552   -1.3629    0.0000 N   0  0  0  0  0  0  0  0  0  0  0  0
    4.1797   -1.3341    0.0000 C   0  0  0  0  0  0  0  0  0  0  0  0
    4.6169   -2.0337    0.0000 O   0  0  0  0  0  0  0  0  0  0  0  0
    4.5670   -0.6056    0.0000 C   0  0  0  0  0  0  0  0  0  0  0  0
    4.1299    0.0940    0.0000 O   0  0  0  0  0  0  0  0  0  0  0  0
    5.3915   -0.5768    0.0000 C   0  0  0  0  0  0  0  0  0  0  0  0
    5.7788    0.1516    0.0000 C   0  0  0  0  0  0  0  0  0  0  0  0
    6.6033    0.1804    0.0000 C   0  0  0  0  0  0  0  0  0  0  0  0
    7.0405   -0.5193    0.0000 C   0  0  0  0  0  0  0  0  0  0  0  0
    6.6532   -1.2477    0.0000 C   0  0  0  0  0  0  0  0  0  0  0  0
    5.8287   -1.2765    0.0000 C   0  0  0  0  0  0  0  0  0  0  0  0
    7.8650   -0.4905    0.0000 Br  0  0  0  0  0  0  0  0  0  0  0  0
  1  2  1  0  0  0  0
  2  3  1  0  0  0  0
  3  4  1  0  0  0  0
  4  5  1  0  0  0  0
  5  6  1  0  0  0  0
  1  6  1  0  0  0  0
  7  8  1  0  0  0  0
  7  9  2  0  0  0  0
  1  7  1  0  0  0  0
 11 12  2  0  0  0  0
 11 13  1  0  0  0  0
 13 14  1  0  0  0  0
 15 16  2  0  0  0  0
 16 17  1  0  0  0  0
 17 18  2  0  0  0  0
 18 19  1  0  0  0  0
 19 20  2  0  0  0  0
 15 20  1  0  0  0  0
 18 21  1  0  0  0  0
 13 15  1  0  0  0  0
 10 11  1  0  0  0  0
  1 10  1  0  0  0  0
M  END
>  <type>
systematic

$$$$
2-Methoxy-4-(methylthio)benzoic acid 2-(3-carboxyphenyl)hydrazide
  Mrv2401 11012421182D          

 23 24  0  0  0  0            999 V2000
    3.5724   -1.2375    0.0000 C   0  0  0  0  0  0  0  0  0  0  0  0
    3.5724   -0.4125    0.0000 C   0  0  0  0  0  0  0  0  0  0  0  0
    4.2868    0.0000    0.0000 O   0  0  0  0  0  0  0  0  0  0  0  0
    4.2868   -1.6500    0.0000 C   0  0  0  0  0  0  0  0  0  0  0  0
    4.2868   -2.4750    0.0000 C   0  0  0  0  0  0  0  0  0  0  0  0
    3.5724   -2.8875    0.0000 C   0  0  0  0  0  0  0  0  0  0  0  0
    2.8579   -2.4750    0.0000 C   0  0  0  0  0  0  0  0  0  0  0  0
    2.8579   -1.6500    0.0000 C   0  0  0  0  0  0  0  0  0  0  0  0
    2.8579    0.8250    0.0000 N   0  0  0  0  0  0  0  0  0  0  0  0
    2.8579    0.0000    0.0000 N   0  0  0  0  0  0  0  0  0  0  0  0
    3.5724    1.2375    0.0000 C   0  0  0  0  0  0  0  0  0  0  0  0
    3.5724    2.0625    0.0000 C   0  0  0  0  0  0  0  0  0  0  0  0
    4.2868    2.4750    0.0000 C   0  0  0  0  0  0  0  0  0  0  0  0
    5.0013    2.0625    0.0000 C   0  0  0  0  0  0  0  0  0  0  0  0
    5.0013    1.2375    0.0000 C   0  0  0  0  0  0  0  0  0  0  0  0
    4.2868    0.8250    0.0000 C   0  0  0  0  0  0  0  0  0  0  0  0
    4.2868    3.3000    0.0000 C   0  0  0  0  0  0  0  0  0  0  0  0
    5.0013    3.7125    0.0000 O   0  0  0  0  0  0  0  0  0  0  0  0
    3.5724    3.7125    0.0000 O   0  0  0  0  0  0  0  0  0  0  0  0
    3.5724   -3.7125    0.0000 S   0  0  0  0  0  0  0  0  0  0  0  0
    4.2868   -4.1250    0.0000 C   0  0  0  0  0  0  0  0  0  0  0  0
    5.0013   -1.2375    0.0000 O   0  0  0  0  0  0  0  0  0  0  0  0
    5.7158   -1.6500    0.0000 C   0  0  0  0  0  0  0  0  0  0  0  0
  1  2  1  0  0  0  0
  2  3  2  0  0  0  0
  1  4  2  0  0  0  0
  4  5  1  0  0  0  0
  5  6  2  0  0  0  0
  6  7  1  0  0  0  0
  7  8  2  0  0  0  0
  1  8  1  0  0  0  0
  9 10  1  0  0  0  0
 11 12  2  0  0  0  0
 12 13  1  0  0  0  0
 13 14  2  0  0  0  0
 14 15  1  0  0  0  0
 15 16  2  0  0  0  0
 11 16  1  0  0  0  0
 17 18  1  0  0  0  0
 17 19  2  0  0  0  0
 13 17  1  0  0  0  0
  9 11  1  0  0  0  0
  2 10  1  0  0  0  0
 20 21  1  0  0  0  0
  6 20  1  0  0  0  0
 22 23  1  0  0  0  0
  4 22  1  0  0  0  0
M  END
>  <type>
systematic

$$$$
3-[[2-(1H-Indol-3-yl)-2-oxo-1-phenylethyl]amino]benzoic acid
  Mrv2401 11012421192D          

 28 31  0  0  0  0            999 V2000
   -2.0470    2.8379    0.0000 C   0  0  0  0  0  0  0  0  0  0  0  0
   -2.3020    3.6226    0.0000 C   0  0  0  0  0  0  0  0  0  0  0  0
   -3.1089    3.7941    0.0000 O   0  0  0  0  0  0  0  0  0  0  0  0
   -1.7499    4.2357    0.0000 O   0  0  0  0  0  0  0  0  0  0  0  0
   -1.2400    2.6664    0.0000 C   0  0  0  0  0  0  0  0  0  0  0  0
   -0.9851    1.8818    0.0000 C   0  0  0  0  0  0  0  0  0  0  0  0
   -1.5371    1.2687    0.0000 C   0  0  0  0  0  0  0  0  0  0  0  0
   -2.3441    1.4402    0.0000 C   0  0  0  0  0  0  0  0  0  0  0  0
   -2.5990    2.2248    0.0000 C   0  0  0  0  0  0  0  0  0  0  0  0
   -0.1781    1.7103    0.0000 N   0  0  0  0  0  0  0  0  0  0  0  0
    0.0768    0.9256    0.0000 C   0  0  0  0  0  0  0  0  0  0  0  0
    0.8838    0.7541    0.0000 C   0  0  0  0  0  0  0  0  0  0  0  0
   -0.4752    0.3126    0.0000 C   0  0  0  0  0  0  0  0  0  0  0  0
   -0.2203   -0.4721    0.0000 C   0  0  0  0  0  0  0  0  0  0  0  0
   -0.7723   -1.0852    0.0000 C   0  0  0  0  0  0  0  0  0  0  0  0
   -1.5793   -0.9136    0.0000 C   0  0  0  0  0  0  0  0  0  0  0  0
   -1.8342   -0.1290    0.0000 C   0  0  0  0  0  0  0  0  0  0  0  0
   -1.2822    0.4841    0.0000 C   0  0  0  0  0  0  0  0  0  0  0  0
    1.4358    1.3672    0.0000 O   0  0  0  0  0  0  0  0  0  0  0  0
    0.6538   -0.6979    0.0000 C   0  0  0  0  0  0  0  0  0  0  0  0
    1.1387   -0.0305    0.0000 C   0  0  0  0  0  0  0  0  0  0  0  0
    1.9233   -0.2854    0.0000 C   0  0  0  0  0  0  0  0  0  0  0  0
    2.6378    0.1271    0.0000 C   0  0  0  0  0  0  0  0  0  0  0  0
    3.3523   -0.2854    0.0000 C   0  0  0  0  0  0  0  0  0  0  0  0
    3.3523   -1.1104    0.0000 C   0  0  0  0  0  0  0  0  0  0  0  0
    2.6378   -1.5229    0.0000 C   0  0  0  0  0  0  0  0  0  0  0  0
    1.9233   -1.1104    0.0000 C   0  0  0  0  0  0  0  0  0  0  0  0
    1.1387   -1.3654    0.0000 N   0  0  0  0  0  0  0  0  0  0  0  0
  1  2  1  0  0  0  0
  2  3  1  0  0  0  0
  2  4  2  0  0  0  0
  1  5  2  0  0  0  0
  5  6  1  0  0  0  0
  6  7  2  0  0  0  0
  7  8  1  0  0  0  0
  8  9  2  0  0  0  0
  1  9  1  0  0  0  0
 11 12  1  0  0  0  0
 13 14  2  0  0  0  0
 14 15  1  0  0  0  0
 15 16  2  0  0  0  0
 16 17  1  0  0  0  0
 17 18  2  0  0  0  0
 13 18  1  0  0  0  0
 11 13  1  0  0  0  0
 12 19  2  0  0  0  0
 20 21  2  0  0  0  0
 21 22  1  0  0  0  0
 22 23  1  0  0  0  0
 23 24  2  0  0  0  0
 24 25  1  0  0  0  0
 25 26  2  0  0  0  0
 26 27  1  0  0  0  0
 22 27  2  0  0  0  0
 27 28  1  0  0  0  0
 20 28  1  0  0  0  0
 12 21  1  0  0  0  0
 10 11  1  0  0  0  0
  6 10  1  0  0  0  0
M  END
>  <type>
systematic

$$$$
3-[[2-Oxo-2-[4-[(3,4,5-trimethoxybenzoyl)amino]phenyl]ethyl]amino]benzoic acid
  Mrv2401 11012421222D          

 34 36  0  0  0  0            999 V2000
    3.5724   -6.1875    0.0000 C   0  0  0  0  0  0  0  0  0  0  0  0
    3.5724   -5.3625    0.0000 C   0  0  0  0  0  0  0  0  0  0  0  0
    2.8579   -4.9500    0.0000 O   0  0  0  0  0  0  0  0  0  0  0  0
    4.2868   -4.9500    0.0000 O   0  0  0  0  0  0  0  0  0  0  0  0
    4.2868   -6.6000    0.0000 C   0  0  0  0  0  0  0  0  0  0  0  0
    4.2868   -7.4250    0.0000 C   0  0  0  0  0  0  0  0  0  0  0  0
    3.5724   -7.8375    0.0000 C   0  0  0  0  0  0  0  0  0  0  0  0
    2.8579   -7.4250    0.0000 C   0  0  0  0  0  0  0  0  0  0  0  0
    2.8579   -6.6000    0.0000 C   0  0  0  0  0  0  0  0  0  0  0  0
    5.0013   -7.8375    0.0000 N   0  0  0  0  0  0  0  0  0  0  0  0
    5.0013   -8.6625    0.0000 C   0  0  0  0  0  0  0  0  0  0  0  0
    5.7158   -9.0750    0.0000 C   0  0  0  0  0  0  0  0  0  0  0  0
    5.7158   -9.9000    0.0000 C   0  0  0  0  0  0  0  0  0  0  0  0
    6.4302  -10.3125    0.0000 C   0  0  0  0  0  0  0  0  0  0  0  0
    6.4302  -11.1375    0.0000 C   0  0  0  0  0  0  0  0  0  0  0  0
    5.7158  -11.5500    0.0000 C   0  0  0  0  0  0  0  0  0  0  0  0
    5.0013  -11.1375    0.0000 C   0  0  0  0  0  0  0  0  0  0  0  0
    5.0013  -10.3125    0.0000 C   0  0  0  0  0  0  0  0  0  0  0  0
    5.7158  -12.3750    0.0000 N   0  0  0  0  0  0  0  0  0  0  0  0
    6.4302  -12.7875    0.0000 C   0  0  0  0  0  0  0  0  0  0  0  0
    7.1447  -12.3750    0.0000 O   0  0  0  0  0  0  0  0  0  0  0  0
    6.4302  -13.6125    0.0000 C   0  0  0  0  0  0  0  0  0  0  0  0
    7.1447  -14.0250    0.0000 C   0  0  0  0  0  0  0  0  0  0  0  0
    7.1447  -14.8500    0.0000 C   0  0  0  0  0  0  0  0  0  0  0  0
    6.4302  -15.2625    0.0000 C   0  0  0  0  0  0  0  0  0  0  0  0
    5.7158  -14.8500    0.0000 C   0  0  0  0  0  0  0  0  0  0  0  0
    5.7158  -14.0250    0.0000 C   0  0  0  0  0  0  0  0  0  0  0  0
    7.8592  -15.2625    0.0000 O   0  0  0  0  0  0  0  0  0  0  0  0
    7.8592  -16.0875    0.0000 C   0  0  0  0  0  0  0  0  0  0  0  0
    6.4302  -16.0875    0.0000 O   0  0  0  0  0  0  0  0  0  0  0  0
    7.1447  -16.5000    0.0000 C   0  0  0  0  0  0  0  0  0  0  0  0
    5.0013  -15.2625    0.0000 O   0  0  0  0  0  0  0  0  0  0  0  0
    4.2868  -14.8500    0.0000 C   0  0  0  0  0  0  0  0  0  0  0  0
    6.4302   -8.6625    0.0000 O   0  0  0  0  0  0  0  0  0  0  0  0
  1  2  1  0  0  0  0
  2  3  1  0  0  0  0
  2  4  2  0  0  0  0
  1  5  2  0  0  0  0
  5  6  1  0  0  0  0
  6  7  2  0  0  0  0
  7  8  1  0  0  0  0
  8  9  2  0  0  0  0
  1  9  1  0  0  0  0
 11 12  1  0  0  0  0
 13 14  2  0  0  0  0
 14 15  1  0  0  0  0
 15 16  2  0  0  0  0
 16 17  1  0  0  0  0
 17 18  2  0  0  0  0
 13 18  1  0  0  0  0
 20 21  2  0  0  0  0
 20 22  1  0  0  0  0
 22 23  2  0  0  0  0
 23 24  1  0  0  0  0
 24 25  2  0  0  0  0
 25 26  1  0  0  0  0
 26 27  2  0  0  0  0
 22 27  1  0  0  0  0
 28 29  1  0  0  0  0
 24 28  1  0  0  0  0
 30 31  1  0  0  0  0
 25 30  1  0  0  0  0
 32 33  1  0  0  0  0
 26 32  1  0  0  0  0
 19 20  1  0  0  0  0
 16 19  1  0  0  0  0
 12 13  1  0  0  0  0
 12 34  2  0  0  0  0
 10 11  1  0  0  0  0
  6 10  1  0  0  0  0
M  END
>  <type>
systematic

$$$$
4-[[2-Oxo-2-[4-[(3,4,5-trimethoxybenzoyl)amino]phenyl]ethyl]amino]benzoic acid
  Mrv2401 11012421232D          

 34 36  0  0  0  0            999 V2000
    3.5724   -6.1875    0.0000 C   0  0  0  0  0  0  0  0  0  0  0  0
    3.5724   -5.3625    0.0000 C   0  0  0  0  0  0  0  0  0  0  0  0
    2.8579   -4.9500    0.0000 O   0  0  0  0  0  0  0  0  0  0  0  0
    4.2868   -4.9500    0.0000 O   0  0  0  0  0  0  0  0  0  0  0  0
    4.2868   -6.6000    0.0000 C   0  0  0  0  0  0  0  0  0  0  0  0
    4.2868   -7.4250    0.0000 C   0  0  0  0  0  0  0  0  0  0  0  0
    3.5724   -7.8375    0.0000 C   0  0  0  0  0  0  0  0  0  0  0  0
    2.8579   -7.4250    0.0000 C   0  0  0  0  0  0  0  0  0  0  0  0
    2.8579   -6.6000    0.0000 C   0  0  0  0  0  0  0  0  0  0  0  0
    3.5724   -8.6625    0.0000 N   0  0  0  0  0  0  0  0  0  0  0  0
    2.8579   -9.0750    0.0000 C   0  0  0  0  0  0  0  0  0  0  0  0
    2.8579   -9.9000    0.0000 C   0  0  0  0  0  0  0  0  0  0  0  0
    2.1434  -10.3125    0.0000 C   0  0  0  0  0  0  0  0  0  0  0  0
    2.1434  -11.1375    0.0000 C   0  0  0  0  0  0  0  0  0  0  0  0
    1.4289  -11.5500    0.0000 C   0  0  0  0  0  0  0  0  0  0  0  0
    0.7145  -11.1375    0.0000 C   0  0  0  0  0  0  0  0  0  0  0  0
    0.7145  -10.3125    0.0000 C   0  0  0  0  0  0  0  0  0  0  0  0
    1.4289   -9.9000    0.0000 C   0  0  0  0  0  0  0  0  0  0  0  0
    0.0000  -11.5500    0.0000 N   0  0  0  0  0  0  0  0  0  0  0  0
    0.0000  -12.3750    0.0000 C   0  0  0  0  0  0  0  0  0  0  0  0
    0.7145  -12.7875    0.0000 O   0  0  0  0  0  0  0  0  0  0  0  0
   -0.7145  -12.7875    0.0000 C   0  0  0  0  0  0  0  0  0  0  0  0
   -0.7145  -13.6125    0.0000 C   0  0  0  0  0  0  0  0  0  0  0  0
   -1.4289  -14.0250    0.0000 C   0  0  0  0  0  0  0  0  0  0  0  0
   -2.1434  -13.6125    0.0000 C   0  0  0  0  0  0  0  0  0  0  0  0
   -2.1434  -12.7875    0.0000 C   0  0  0  0  0  0  0  0  0  0  0  0
   -1.4289  -12.3750    0.0000 C   0  0  0  0  0  0  0  0  0  0  0  0
   -1.4289  -14.8500    0.0000 O   0  0  0  0  0  0  0  0  0  0  0  0
   -2.1434  -15.2625    0.0000 C   0  0  0  0  0  0  0  0  0  0  0  0
   -2.8579  -14.0250    0.0000 O   0  0  0  0  0  0  0  0  0  0  0  0
   -2.8579  -14.8500    0.0000 C   0  0  0  0  0  0  0  0  0  0  0  0
   -2.8579  -12.3750    0.0000 O   0  0  0  0  0  0  0  0  0  0  0  0
   -2.8579  -11.5500    0.0000 C   0  0  0  0  0  0  0  0  0  0  0  0
    3.5724  -10.3125    0.0000 O   0  0  0  0  0  0  0  0  0  0  0  0
  1  2  1  0  0  0  0
  2  3  1  0  0  0  0
  2  4  2  0  0  0  0
  1  5  2  0  0  0  0
  5  6  1  0  0  0  0
  6  7  2  0  0  0  0
  7  8  1  0  0  0  0
  8  9  2  0  0  0  0
  1  9  1  0  0  0  0
 11 12  1  0  0  0  0
 13 14  2  0  0  0  0
 14 15  1  0  0  0  0
 15 16  2  0  0  0  0
 16 17  1  0  0  0  0
 17 18  2  0  0  0  0
 13 18  1  0  0  0  0
 20 21  2  0  0  0  0
 20 22  1  0  0  0  0
 22 23  2  0  0  0  0
 23 24  1  0  0  0  0
 24 25  2  0  0  0  0
 25 26  1  0  0  0  0
 26 27  2  0  0  0  0
 22 27  1  0  0  0  0
 28 29  1  0  0  0  0
 24 28  1  0  0  0  0
 30 31  1  0  0  0  0
 25 30  1  0  0  0  0
 32 33  1  0  0  0  0
 26 32  1  0  0  0  0
 19 20  1  0  0  0  0
 16 19  1  0  0  0  0
 12 13  1  0  0  0  0
 12 34  2  0  0  0  0
 10 11  1  0  0  0  0
  7 10  1  0  0  0  0
M  END
>  <type>
systematic

$$$$
2-[[2-(4-Morpholinyl)-2-oxoethyl]amino]-4-benzothiazolecarboxylic acid
  Mrv2401 11012421312D          

 22 24  0  0  0  0            999 V2000
    0.6411   -1.1104    0.0000 C   0  0  0  0  0  0  0  0  0  0  0  0
   -0.1435   -1.3654    0.0000 S   0  0  0  0  0  0  0  0  0  0  0  0
   -0.6284   -0.6979    0.0000 C   0  0  0  0  0  0  0  0  0  0  0  0
   -0.1435   -0.0305    0.0000 N   0  0  0  0  0  0  0  0  0  0  0  0
    0.6411   -0.2854    0.0000 C   0  0  0  0  0  0  0  0  0  0  0  0
    1.3556    0.1271    0.0000 C   0  0  0  0  0  0  0  0  0  0  0  0
    2.0701   -0.2854    0.0000 C   0  0  0  0  0  0  0  0  0  0  0  0
    2.0701   -1.1104    0.0000 C   0  0  0  0  0  0  0  0  0  0  0  0
    1.3556   -1.5229    0.0000 C   0  0  0  0  0  0  0  0  0  0  0  0
    1.3556    0.9521    0.0000 C   0  0  0  0  0  0  0  0  0  0  0  0
    2.0701    1.3646    0.0000 O   0  0  0  0  0  0  0  0  0  0  0  0
    0.6411    1.3646    0.0000 O   0  0  0  0  0  0  0  0  0  0  0  0
   -1.4534   -0.6979    0.0000 N   0  0  0  0  0  0  0  0  0  0  0  0
   -1.8659   -1.4124    0.0000 C   0  0  0  0  0  0  0  0  0  0  0  0
   -2.6909   -1.4124    0.0000 C   0  0  0  0  0  0  0  0  0  0  0  0
   -3.1034   -0.6979    0.0000 O   0  0  0  0  0  0  0  0  0  0  0  0
   -2.6909   -2.8414    0.0000 C   0  0  0  0  0  0  0  0  0  0  0  0
   -3.1034   -3.5558    0.0000 C   0  0  0  0  0  0  0  0  0  0  0  0
   -3.9284   -3.5558    0.0000 O   0  0  0  0  0  0  0  0  0  0  0  0
   -4.3409   -2.8414    0.0000 C   0  0  0  0  0  0  0  0  0  0  0  0
   -3.9284   -2.1269    0.0000 C   0  0  0  0  0  0  0  0  0  0  0  0
   -3.1034   -2.1269    0.0000 N   0  0  0  0  0  0  0  0  0  0  0  0
  1  2  1  0  0  0  0
  2  3  1  0  0  0  0
  3  4  2  0  0  0  0
  4  5  1  0  0  0  0
  1  5  1  0  0  0  0
  5  6  2  0  0  0  0
  6  7  1  0  0  0  0
  7  8  2  0  0  0  0
  8  9  1  0  0  0  0
  1  9  2  0  0  0  0
 10 11  1  0  0  0  0
 10 12  2  0  0  0  0
  6 10  1  0  0  0  0
 14 15  1  0  0  0  0
 15 16  2  0  0  0  0
 17 18  1  0  0  0  0
 18 19  1  0  0  0  0
 19 20  1  0  0  0  0
 20 21  1  0  0  0  0
 21 22  1  0  0  0  0
 17 22  1  0  0  0  0
 15 22  1  0  0  0  0
 13 14  1  0  0  0  0
  3 13  1  0  0  0  0
M  END
>  <type>
systematic

$$$$
5-[(2-Hydroxy-2-phenylacetyl)amino]-2-[2-(4-methylphenyl)ethynyl]benzoic acid
  Mrv2401 11012421322D          

 29 31  0  0  0  0            999 V2000
    2.8579   -2.4750    0.0000 C   0  0  0  0  0  0  0  0  0  0  0  0
    2.8579   -1.6500    0.0000 C   0  0  0  0  0  0  0  0  0  0  0  0
    2.1434   -1.2375    0.0000 O   0  0  0  0  0  0  0  0  0  0  0  0
    3.5724   -1.2375    0.0000 O   0  0  0  0  0  0  0  0  0  0  0  0
    3.5724   -2.8875    0.0000 C   0  0  0  0  0  0  0  0  0  0  0  0
    3.5724   -3.7125    0.0000 C   0  0  0  0  0  0  0  0  0  0  0  0
    2.8579   -4.1250    0.0000 C   0  0  0  0  0  0  0  0  0  0  0  0
    2.1434   -3.7125    0.0000 C   0  0  0  0  0  0  0  0  0  0  0  0
    2.1434   -2.8875    0.0000 C   0  0  0  0  0  0  0  0  0  0  0  0
    4.2868   -2.4750    0.0000 C   0  0  0  0  0  0  0  0  0  0  0  0
    5.0013   -2.0625    0.0000 C   0  0  0  0  0  0  0  0  0  0  0  0
    5.7158   -1.6500    0.0000 C   0  0  0  0  0  0  0  0  0  0  0  0
    5.7158   -0.8250    0.0000 C   0  0  0  0  0  0  0  0  0  0  0  0
    6.4302   -0.4125    0.0000 C   0  0  0  0  0  0  0  0  0  0  0  0
    7.1447   -0.8250    0.0000 C   0  0  0  0  0  0  0  0  0  0  0  0
    7.1447   -1.6500    0.0000 C   0  0  0  0  0  0  0  0  0  0  0  0
    6.4302   -2.0625    0.0000 C   0  0  0  0  0  0  0  0  0  0  0  0
    7.8592   -0.4125    0.0000 C   0  0  0  0  0  0  0  0  0  0  0  0
    1.4289   -4.1250    0.0000 N   0  0  0  0  0  0  0  0  0  0  0  0
    0.7145   -3.7125    0.0000 C   0  0  0  0  0  0  0  0  0  0  0  0
    0.7145   -2.8875    0.0000 O   0  0  0  0  0  0  0  0  0  0  0  0
    0.0000   -4.1250    0.0000 C   0  0  0  0  0  0  0  0  0  0  0  0
   -0.7145   -3.7125    0.0000 C   0  0  0  0  0  0  0  0  0  0  0  0
   -1.4289   -4.1250    0.0000 C   0  0  0  0  0  0  0  0  0  0  0  0
   -2.1434   -3.7125    0.0000 C   0  0  0  0  0  0  0  0  0  0  0  0
   -2.1434   -2.8875    0.0000 C   0  0  0  0  0  0  0  0  0  0  0  0
   -1.4289   -2.4750    0.0000 C   0  0  0  0  0  0  0  0  0  0  0  0
   -0.7145   -2.8875    0.0000 C   0  0  0  0  0  0  0  0  0  0  0  0
    0.0000   -4.9500    0.0000 O   0  0  0  0  0  0  0  0  0  0  0  0
  1  2  1  0  0  0  0
  2  3  1  0  0  0  0
  2  4  2  0  0  0  0
  1  5  2  0  0  0  0
  5  6  1  0  0  0  0
  6  7  2  0  0  0  0
  7  8  1  0  0  0  0
  8  9  2  0  0  0  0
  1  9  1  0  0  0  0
 10 11  3  0  0  0  0
 12 13  2  0  0  0  0
 13 14  1  0  0  0  0
 14 15  2  0  0  0  0
 15 16  1  0  0  0  0
 16 17  2  0  0  0  0
 12 17  1  0  0  0  0
 15 18  1  0  0  0  0
 11 12  1  0  0  0  0
  5 10  1  0  0  0  0
 20 21  2  0  0  0  0
 20 22  1  0  0  0  0
 23 24  2  0  0  0  0
 24 25  1  0  0  0  0
 25 26  2  0  0  0  0
 26 27  1  0  0  0  0
 27 28  2  0  0  0  0
 23 28  1  0  0  0  0
 22 23  1  0  0  0  0
 22 29  1  0  0  0  0
 19 20  1  0  0  0  0
  8 19  1  0  0  0  0
M  END
>  <type>
systematic

$$$$
2-[[2-Oxo-2-[4-[(3,4,5-trimethoxybenzoyl)amino]phenyl]ethyl]amino]benzoic acid
  Mrv2401 11012421332D          

 34 36  0  0  0  0            999 V2000
    3.5724   -6.1875    0.0000 C   0  0  0  0  0  0  0  0  0  0  0  0
    3.5724   -5.3625    0.0000 C   0  0  0  0  0  0  0  0  0  0  0  0
    2.8579   -4.9500    0.0000 O   0  0  0  0  0  0  0  0  0  0  0  0
    4.2868   -4.9500    0.0000 O   0  0  0  0  0  0  0  0  0  0  0  0
    4.2868   -6.6000    0.0000 C   0  0  0  0  0  0  0  0  0  0  0  0
    4.2868   -7.4250    0.0000 C   0  0  0  0  0  0  0  0  0  0  0  0
    3.5724   -7.8375    0.0000 C   0  0  0  0  0  0  0  0  0  0  0  0
    2.8579   -7.4250    0.0000 C   0  0  0  0  0  0  0  0  0  0  0  0
    2.8579   -6.6000    0.0000 C   0  0  0  0  0  0  0  0  0  0  0  0
    5.0013   -6.1875    0.0000 N   0  0  0  0  0  0  0  0  0  0  0  0
    5.7158   -6.6000    0.0000 C   0  0  0  0  0  0  0  0  0  0  0  0
    6.4302   -6.1875    0.0000 C   0  0  0  0  0  0  0  0  0  0  0  0
    7.1447   -6.6000    0.0000 C   0  0  0  0  0  0  0  0  0  0  0  0
    7.8592   -6.1875    0.0000 C   0  0  0  0  0  0  0  0  0  0  0  0
    8.5737   -6.6000    0.0000 C   0  0  0  0  0  0  0  0  0  0  0  0
    8.5737   -7.4250    0.0000 C   0  0  0  0  0  0  0  0  0  0  0  0
    7.8592   -7.8375    0.0000 C   0  0  0  0  0  0  0  0  0  0  0  0
    7.1447   -7.4250    0.0000 C   0  0  0  0  0  0  0  0  0  0  0  0
    9.2881   -7.8375    0.0000 N   0  0  0  0  0  0  0  0  0  0  0  0
   10.0026   -7.4250    0.0000 C   0  0  0  0  0  0  0  0  0  0  0  0
   10.0026   -6.6000    0.0000 O   0  0  0  0  0  0  0  0  0  0  0  0
   10.7171   -7.8375    0.0000 C   0  0  0  0  0  0  0  0  0  0  0  0
   11.4315   -7.4250    0.0000 C   0  0  0  0  0  0  0  0  0  0  0  0
   12.1460   -7.8375    0.0000 C   0  0  0  0  0  0  0  0  0  0  0  0
   12.1460   -8.6625    0.0000 C   0  0  0  0  0  0  0  0  0  0  0  0
   11.4315   -9.0750    0.0000 C   0  0  0  0  0  0  0  0  0  0  0  0
   10.7171   -8.6625    0.0000 C   0  0  0  0  0  0  0  0  0  0  0  0
   12.8605   -7.4250    0.0000 O   0  0  0  0  0  0  0  0  0  0  0  0
   13.5749   -7.8375    0.0000 C   0  0  0  0  0  0  0  0  0  0  0  0
   12.8605   -9.0750    0.0000 O   0  0  0  0  0  0  0  0  0  0  0  0
   13.5749   -8.6625    0.0000 C   0  0  0  0  0  0  0  0  0  0  0  0
   11.4315   -9.9000    0.0000 O   0  0  0  0  0  0  0  0  0  0  0  0
   10.7171  -10.3125    0.0000 C   0  0  0  0  0  0  0  0  0  0  0  0
    6.4302   -5.3625    0.0000 O   0  0  0  0  0  0  0  0  0  0  0  0
  1  2  1  0  0  0  0
  2  3  1  0  0  0  0
  2  4  2  0  0  0  0
  1  5  2  0  0  0  0
  5  6  1  0  0  0  0
  6  7  2  0  0  0  0
  7  8  1  0  0  0  0
  8  9  2  0  0  0  0
  1  9  1  0  0  0  0
 11 12  1  0  0  0  0
 13 14  2  0  0  0  0
 14 15  1  0  0  0  0
 15 16  2  0  0  0  0
 16 17  1  0  0  0  0
 17 18  2  0  0  0  0
 13 18  1  0  0  0  0
 20 21  2  0  0  0  0
 20 22  1  0  0  0  0
 22 23  2  0  0  0  0
 23 24  1  0  0  0  0
 24 25  2  0  0  0  0
 25 26  1  0  0  0  0
 26 27  2  0  0  0  0
 22 27  1  0  0  0  0
 28 29  1  0  0  0  0
 24 28  1  0  0  0  0
 30 31  1  0  0  0  0
 25 30  1  0  0  0  0
 32 33  1  0  0  0  0
 26 32  1  0  0  0  0
 19 20  1  0  0  0  0
 16 19  1  0  0  0  0
 12 13  1  0  0  0  0
 12 34  2  0  0  0  0
 10 11  1  0  0  0  0
  5 10  1  0  0  0  0
M  END
>  <type>
systematic

$$$$
4-Thia-1-azabicyclo[3.2.0]heptane-2-carboxylic acid, 6-[(hydroxyphenylacetyl)amino]-7-oxo-, [2 S-[2α,5α,6β(S*)]]-
  Mrv2401 11012421332D          

  0  0  0     0  0            999 V3000
M  V30 BEGIN CTAB
M  V30 COUNTS 22 24 0 0 1
M  V30 BEGIN ATOM
M  V30 1 N 3.3102 0.4645 0 0
M  V30 2 C 4.7748 0.9403 0 0 CFG=2
M  V30 3 C 5.68 -0.3055 0 0
M  V30 4 S 4.7748 -1.5514 0 0
M  V30 5 C 3.3102 -1.0755 0 0 CFG=1
M  V30 6 C 1.7702 -1.0755 0 0 CFG=2
M  V30 7 C 1.7702 0.4645 0 0
M  V30 8 C 5.2507 2.405 0 0
M  V30 9 O 6.757 2.7252 0 0
M  V30 10 O 4.2202 3.5494 0 0
M  V30 11 O 0.6812 1.5534 0 0
M  V30 12 N 0.6812 -2.1645 0 0
M  V30 13 C -0.8063 -1.7659 0 0
M  V30 14 O -1.2049 -0.2784 0 0
M  V30 15 C -1.8952 -2.8548 0 0
M  V30 16 C -3.3828 -2.4563 0 0
M  V30 17 C -4.4717 -3.5452 0 0
M  V30 18 C -5.9592 -3.1466 0 0
M  V30 19 C -6.3578 -1.6591 0 0
M  V30 20 C -5.2689 -0.5702 0 0
M  V30 21 C -3.7814 -0.9687 0 0
M  V30 22 O -1.4967 -4.3424 0 0
M  V30 END ATOM
M  V30 BEGIN BOND
M  V30 1 1 2 1
M  V30 2 1 2 3
M  V30 3 1 3 4
M  V30 4 1 5 4
M  V30 5 1 5 1 CFG=1
M  V30 6 1 5 6
M  V30 7 1 6 7
M  V30 8 1 1 7
M  V30 9 1 8 9
M  V30 10 2 8 10
M  V30 11 1 2 8 CFG=1
M  V30 12 2 7 11
M  V30 13 2 13 14
M  V30 14 1 13 15
M  V30 15 2 16 17
M  V30 16 1 17 18
M  V30 17 2 18 19
M  V30 18 1 19 20
M  V30 19 2 20 21
M  V30 20 1 16 21
M  V30 21 1 15 16
M  V30 22 1 15 22
M  V30 23 1 12 13
M  V30 24 1 6 12 CFG=1
M  V30 END BOND
M  V30 BEGIN COLLECTION
M  V30 MDLV30/STEREL1 ATOMS=(1 6)
M  V30 END COLLECTION
M  V30 END CTAB
M  END
>  <type>
systematic

$$$$
3-[2-[(4-Carboxyphenyl)amino]acetyl]-2-(2-hydroxyphenyl)-4-thiazolidinecarboxylic acid
  Mrv2401 11012421352D          

 28 30  0  0  0  0            999 V2000
    3.1637   -3.8062    0.0000 S   0  0  0  0  0  0  0  0  0  0  0  0
    2.3387   -3.8062    0.0000 C   0  0  0  0  0  0  0  0  0  0  0  0
    2.0837   -3.0215    0.0000 N   0  0  0  0  0  0  0  0  0  0  0  0
    2.7512   -2.5366    0.0000 C   0  0  0  0  0  0  0  0  0  0  0  0
    3.4186   -3.0215    0.0000 C   0  0  0  0  0  0  0  0  0  0  0  0
    2.7512   -1.7116    0.0000 C   0  0  0  0  0  0  0  0  0  0  0  0
    3.4656   -1.2991    0.0000 O   0  0  0  0  0  0  0  0  0  0  0  0
    2.0367   -1.2991    0.0000 O   0  0  0  0  0  0  0  0  0  0  0  0
    1.8538   -4.4736    0.0000 C   0  0  0  0  0  0  0  0  0  0  0  0
    2.1893   -5.2273    0.0000 C   0  0  0  0  0  0  0  0  0  0  0  0
    1.7044   -5.8947    0.0000 C   0  0  0  0  0  0  0  0  0  0  0  0
    0.8839   -5.8085    0.0000 C   0  0  0  0  0  0  0  0  0  0  0  0
    0.5484   -5.0548    0.0000 C   0  0  0  0  0  0  0  0  0  0  0  0
    1.0333   -4.3874    0.0000 C   0  0  0  0  0  0  0  0  0  0  0  0
    3.0098   -5.3135    0.0000 O   0  0  0  0  0  0  0  0  0  0  0  0
    1.2991   -2.7666    0.0000 C   0  0  0  0  0  0  0  0  0  0  0  0
    0.6860   -3.3186    0.0000 O   0  0  0  0  0  0  0  0  0  0  0  0
    1.1276   -1.9596    0.0000 C   0  0  0  0  0  0  0  0  0  0  0  0
    0.3430   -1.7047    0.0000 N   0  0  0  0  0  0  0  0  0  0  0  0
    0.1714   -0.8977    0.0000 C   0  0  0  0  0  0  0  0  0  0  0  0
   -0.6132   -0.6428    0.0000 C   0  0  0  0  0  0  0  0  0  0  0  0
   -0.7847    0.1642    0.0000 C   0  0  0  0  0  0  0  0  0  0  0  0
   -0.1716    0.7162    0.0000 C   0  0  0  0  0  0  0  0  0  0  0  0
    0.6130    0.4613    0.0000 C   0  0  0  0  0  0  0  0  0  0  0  0
    0.7845   -0.3457    0.0000 C   0  0  0  0  0  0  0  0  0  0  0  0
   -0.3431    1.5232    0.0000 C   0  0  0  0  0  0  0  0  0  0  0  0
   -1.1278    1.7781    0.0000 O   0  0  0  0  0  0  0  0  0  0  0  0
    0.2700    2.0752    0.0000 O   0  0  0  0  0  0  0  0  0  0  0  0
  1  2  1  0  0  0  0
  2  3  1  0  0  0  0
  3  4  1  0  0  0  0
  4  5  1  0  0  0  0
  1  5  1  0  0  0  0
  6  7  1  0  0  0  0
  6  8  2  0  0  0  0
  4  6  1  0  0  0  0
  9 10  2  0  0  0  0
 10 11  1  0  0  0  0
 11 12  2  0  0  0  0
 12 13  1  0  0  0  0
 13 14  2  0  0  0  0
  9 14  1  0  0  0  0
 10 15  1  0  0  0  0
  2  9  1  0  0  0  0
 16 17  2  0  0  0  0
 16 18  1  0  0  0  0
 20 21  2  0  0  0  0
 21 22  1  0  0  0  0
 22 23  2  0  0  0  0
 23 24  1  0  0  0  0
 24 25  2  0  0  0  0
 20 25  1  0  0  0  0
 26 27  1  0  0  0  0
 26 28  2  0  0  0  0
 23 26  1  0  0  0  0
 19 20  1  0  0  0  0
 18 19  1  0  0  0  0
  3 16  1  0  0  0  0
M  END
>  <type>
systematic

$$$$
4-[[2-(5-Hydroxy-2-methyl-4-oxo-4H-1-benzopyran-3-yl)-2-oxoethyl]amino]benzoic acid
  Mrv2401 11012421362D          

 26 28  0  0  0  0            999 V2000
    6.4302   -1.2375    0.0000 C   0  0  0  0  0  0  0  0  0  0  0  0
    7.1447   -1.6500    0.0000 C   0  0  0  0  0  0  0  0  0  0  0  0
    7.8592   -1.2375    0.0000 O   0  0  0  0  0  0  0  0  0  0  0  0
    7.1447   -2.4750    0.0000 O   0  0  0  0  0  0  0  0  0  0  0  0
    5.7158   -1.6500    0.0000 C   0  0  0  0  0  0  0  0  0  0  0  0
    5.0013   -1.2375    0.0000 C   0  0  0  0  0  0  0  0  0  0  0  0
    5.0013   -0.4125    0.0000 C   0  0  0  0  0  0  0  0  0  0  0  0
    5.7158   -0.0000    0.0000 C   0  0  0  0  0  0  0  0  0  0  0  0
    6.4302   -0.4125    0.0000 C   0  0  0  0  0  0  0  0  0  0  0  0
    4.2868   -0.0000    0.0000 N   0  0  0  0  0  0  0  0  0  0  0  0
    3.5724   -0.4125    0.0000 C   0  0  0  0  0  0  0  0  0  0  0  0
    2.8579   -0.0000    0.0000 C   0  0  0  0  0  0  0  0  0  0  0  0
    2.8579    0.8250    0.0000 O   0  0  0  0  0  0  0  0  0  0  0  0
   -0.7145   -1.2375    0.0000 C   0  0  0  0  0  0  0  0  0  0  0  0
    0.0000   -1.6500    0.0000 C   0  0  0  0  0  0  0  0  0  0  0  0
    0.7145   -1.2375    0.0000 C   0  0  0  0  0  0  0  0  0  0  0  0
    0.7145   -0.4125    0.0000 C   0  0  0  0  0  0  0  0  0  0  0  0
    0.0000   -0.0000    0.0000 C   0  0  0  0  0  0  0  0  0  0  0  0
   -0.7145   -0.4125    0.0000 C   0  0  0  0  0  0  0  0  0  0  0  0
    1.4289   -0.0000    0.0000 C   0  0  0  0  0  0  0  0  0  0  0  0
    2.1434   -0.4125    0.0000 C   0  0  0  0  0  0  0  0  0  0  0  0
    2.1434   -1.2375    0.0000 C   0  0  0  0  0  0  0  0  0  0  0  0
    1.4289   -1.6500    0.0000 O   0  0  0  0  0  0  0  0  0  0  0  0
    1.4289    0.8250    0.0000 O   0  0  0  0  0  0  0  0  0  0  0  0
    2.8579   -1.6500    0.0000 C   0  0  0  0  0  0  0  0  0  0  0  0
    0.0000    0.8250    0.0000 O   0  0  0  0  0  0  0  0  0  0  0  0
  1  2  1  0  0  0  0
  2  3  1  0  0  0  0
  2  4  2  0  0  0  0
  1  5  2  0  0  0  0
  5  6  1  0  0  0  0
  6  7  2  0  0  0  0
  7  8  1  0  0  0  0
  8  9  2  0  0  0  0
  1  9  1  0  0  0  0
 11 12  1  0  0  0  0
 12 13  2  0  0  0  0
 14 15  2  0  0  0  0
 15 16  1  0  0  0  0
 16 17  2  0  0  0  0
 17 18  1  0  0  0  0
 18 19  2  0  0  0  0
 14 19  1  0  0  0  0
 17 20  1  0  0  0  0
 20 21  1  0  0  0  0
 21 22  2  0  0  0  0
 22 23  1  0  0  0  0
 16 23  1  0  0  0  0
 20 24  2  0  0  0  0
 22 25  1  0  0  0  0
 18 26  1  0  0  0  0
 12 21  1  0  0  0  0
 10 11  1  0  0  0  0
  7 10  1  0  0  0  0
M  END
>  <type>
systematic

$$$$
4-[[2-[4-[(2-Carboxybenzoyl)amino]-3-chlorophenyl]-2-oxoethyl]amino]-2-hydroxybenzoic acid
  Mrv2401 11012421372D          

 33 35  0  0  0  0            999 V2000
    3.5724   -6.1875    0.0000 C   0  0  0  0  0  0  0  0  0  0  0  0
    3.5724   -5.3625    0.0000 C   0  0  0  0  0  0  0  0  0  0  0  0
    2.8579   -4.9500    0.0000 O   0  0  0  0  0  0  0  0  0  0  0  0
    4.2868   -4.9500    0.0000 O   0  0  0  0  0  0  0  0  0  0  0  0
    4.2868   -6.6000    0.0000 C   0  0  0  0  0  0  0  0  0  0  0  0
    4.2868   -7.4250    0.0000 C   0  0  0  0  0  0  0  0  0  0  0  0
    3.5724   -7.8375    0.0000 C   0  0  0  0  0  0  0  0  0  0  0  0
    2.8579   -7.4250    0.0000 C   0  0  0  0  0  0  0  0  0  0  0  0
    2.8579   -6.6000    0.0000 C   0  0  0  0  0  0  0  0  0  0  0  0
    5.0013   -6.1875    0.0000 O   0  0  0  0  0  0  0  0  0  0  0  0
    3.5724   -8.6625    0.0000 N   0  0  0  0  0  0  0  0  0  0  0  0
    2.8579   -9.0750    0.0000 C   0  0  0  0  0  0  0  0  0  0  0  0
    2.8579   -9.9000    0.0000 C   0  0  0  0  0  0  0  0  0  0  0  0
    3.5724  -10.3125    0.0000 O   0  0  0  0  0  0  0  0  0  0  0  0
    2.1434  -10.3125    0.0000 C   0  0  0  0  0  0  0  0  0  0  0  0
    2.1434  -11.1375    0.0000 C   0  0  0  0  0  0  0  0  0  0  0  0
    1.4289  -11.5500    0.0000 C   0  0  0  0  0  0  0  0  0  0  0  0
    0.7145  -11.1375    0.0000 C   0  0  0  0  0  0  0  0  0  0  0  0
    0.7145  -10.3125    0.0000 C   0  0  0  0  0  0  0  0  0  0  0  0
    1.4289   -9.9000    0.0000 C   0  0  0  0  0  0  0  0  0  0  0  0
    1.4289  -12.3750    0.0000 Cl  0  0  0  0  0  0  0  0  0  0  0  0
    0.0000  -11.5500    0.0000 N   0  0  0  0  0  0  0  0  0  0  0  0
    0.0000  -12.3750    0.0000 C   0  0  0  0  0  0  0  0  0  0  0  0
    0.7145  -12.7875    0.0000 O   0  0  0  0  0  0  0  0  0  0  0  0
   -0.7145  -12.7875    0.0000 C   0  0  0  0  0  0  0  0  0  0  0  0
   -0.7145  -13.6125    0.0000 C   0  0  0  0  0  0  0  0  0  0  0  0
   -1.4289  -14.0250    0.0000 C   0  0  0  0  0  0  0  0  0  0  0  0
   -2.1434  -13.6125    0.0000 C   0  0  0  0  0  0  0  0  0  0  0  0
   -2.1434  -12.7875    0.0000 C   0  0  0  0  0  0  0  0  0  0  0  0
   -1.4289  -12.3750    0.0000 C   0  0  0  0  0  0  0  0  0  0  0  0
   -0.0000  -14.0250    0.0000 C   0  0  0  0  0  0  0  0  0  0  0  0
   -0.0000  -14.8500    0.0000 O   0  0  0  0  0  0  0  0  0  0  0  0
    0.7145  -13.6125    0.0000 O   0  0  0  0  0  0  0  0  0  0  0  0
  1  2  1  0  0  0  0
  2  3  1  0  0  0  0
  2  4  2  0  0  0  0
  1  5  2  0  0  0  0
  5  6  1  0  0  0  0
  6  7  2  0  0  0  0
  7  8  1  0  0  0  0
  8  9  2  0  0  0  0
  1  9  1  0  0  0  0
  5 10  1  0  0  0  0
 12 13  1  0  0  0  0
 13 14  2  0  0  0  0
 15 16  2  0  0  0  0
 16 17  1  0  0  0  0
 17 18  2  0  0  0  0
 18 19  1  0  0  0  0
 19 20  2  0  0  0  0
 15 20  1  0  0  0  0
 17 21  1  0  0  0  0
 23 24  2  0  0  0  0
 23 25  1  0  0  0  0
 25 26  2  0  0  0  0
 26 27  1  0  0  0  0
 27 28  2  0  0  0  0
 28 29  1  0  0  0  0
 29 30  2  0  0  0  0
 25 30  1  0  0  0  0
 31 32  1  0  0  0  0
 31 33  2  0  0  0  0
 26 31  1  0  0  0  0
 22 23  1  0  0  0  0
 18 22  1  0  0  0  0
 13 15  1  0  0  0  0
 11 12  1  0  0  0  0
  7 11  1  0  0  0  0
M  END
>  <type>
systematic

$$$$
3-[[2-(8-Hydroxy-2-oxo-2H-1-benzopyran-3-yl)-2-oxoethyl]amino]benzoic acid
  Mrv2401 11012421372D          

 25 27  0  0  0  0            999 V2000
    5.7158   -1.6500    0.0000 C   0  0  0  0  0  0  0  0  0  0  0  0
    5.7158   -2.4750    0.0000 C   0  0  0  0  0  0  0  0  0  0  0  0
    6.4302   -2.8875    0.0000 O   0  0  0  0  0  0  0  0  0  0  0  0
    5.0013   -2.8875    0.0000 O   0  0  0  0  0  0  0  0  0  0  0  0
    5.0013   -1.2375    0.0000 C   0  0  0  0  0  0  0  0  0  0  0  0
    5.0013   -0.4125    0.0000 C   0  0  0  0  0  0  0  0  0  0  0  0
    5.7158   -0.0000    0.0000 C   0  0  0  0  0  0  0  0  0  0  0  0
    6.4302   -0.4125    0.0000 C   0  0  0  0  0  0  0  0  0  0  0  0
    6.4302   -1.2375    0.0000 C   0  0  0  0  0  0  0  0  0  0  0  0
    4.2868   -0.0000    0.0000 N   0  0  0  0  0  0  0  0  0  0  0  0
    3.5724   -0.4125    0.0000 C   0  0  0  0  0  0  0  0  0  0  0  0
    2.8579   -0.0000    0.0000 C   0  0  0  0  0  0  0  0  0  0  0  0
    2.8579    0.8250    0.0000 O   0  0  0  0  0  0  0  0  0  0  0  0
   -0.7145   -1.2375    0.0000 C   0  0  0  0  0  0  0  0  0  0  0  0
    0.0000   -1.6500    0.0000 C   0  0  0  0  0  0  0  0  0  0  0  0
    0.7145   -1.2375    0.0000 C   0  0  0  0  0  0  0  0  0  0  0  0
    0.7145   -0.4125    0.0000 C   0  0  0  0  0  0  0  0  0  0  0  0
    0.0000   -0.0000    0.0000 C   0  0  0  0  0  0  0  0  0  0  0  0
   -0.7145   -0.4125    0.0000 C   0  0  0  0  0  0  0  0  0  0  0  0
    1.4289   -0.0000    0.0000 C   0  0  0  0  0  0  0  0  0  0  0  0
    2.1434   -0.4125    0.0000 C   0  0  0  0  0  0  0  0  0  0  0  0
    2.1434   -1.2375    0.0000 C   0  0  0  0  0  0  0  0  0  0  0  0
    1.4289   -1.6500    0.0000 O   0  0  0  0  0  0  0  0  0  0  0  0
    2.8579   -1.6500    0.0000 O   0  0  0  0  0  0  0  0  0  0  0  0
    0.0000   -2.4750    0.0000 O   0  0  0  0  0  0  0  0  0  0  0  0
  1  2  1  0  0  0  0
  2  3  1  0  0  0  0
  2  4  2  0  0  0  0
  1  5  2  0  0  0  0
  5  6  1  0  0  0  0
  6  7  2  0  0  0  0
  7  8  1  0  0  0  0
  8  9  2  0  0  0  0
  1  9  1  0  0  0  0
 11 12  1  0  0  0  0
 12 13  2  0  0  0  0
 14 15  1  0  0  0  0
 15 16  2  0  0  0  0
 16 17  1  0  0  0  0
 17 18  2  0  0  0  0
 18 19  1  0  0  0  0
 14 19  2  0  0  0  0
 17 20  1  0  0  0  0
 20 21  2  0  0  0  0
 21 22  1  0  0  0  0
 22 23  1  0  0  0  0
 16 23  1  0  0  0  0
 22 24  2  0  0  0  0
 15 25  1  0  0  0  0
 12 21  1  0  0  0  0
 10 11  1  0  0  0  0
  6 10  1  0  0  0  0
M  END
>  <type>
systematic

$$$$
3-[[2-(6-Methoxy-2-oxo-2H-1-benzopyran-3-yl)-2-oxoethyl]amino]benzoic acid
  Mrv2401 11012421382D          

 26 28  0  0  0  0            999 V2000
    5.7158   -1.6500    0.0000 C   0  0  0  0  0  0  0  0  0  0  0  0
    5.7158   -2.4750    0.0000 C   0  0  0  0  0  0  0  0  0  0  0  0
    6.4302   -2.8875    0.0000 O   0  0  0  0  0  0  0  0  0  0  0  0
    5.0013   -2.8875    0.0000 O   0  0  0  0  0  0  0  0  0  0  0  0
    5.0013   -1.2375    0.0000 C   0  0  0  0  0  0  0  0  0  0  0  0
    5.0013   -0.4125    0.0000 C   0  0  0  0  0  0  0  0  0  0  0  0
    5.7158   -0.0000    0.0000 C   0  0  0  0  0  0  0  0  0  0  0  0
    6.4302   -0.4125    0.0000 C   0  0  0  0  0  0  0  0  0  0  0  0
    6.4302   -1.2375    0.0000 C   0  0  0  0  0  0  0  0  0  0  0  0
    4.2868   -0.0000    0.0000 N   0  0  0  0  0  0  0  0  0  0  0  0
    3.5724   -0.4125    0.0000 C   0  0  0  0  0  0  0  0  0  0  0  0
    2.8579   -0.0000    0.0000 C   0  0  0  0  0  0  0  0  0  0  0  0
    2.8579    0.8250    0.0000 O   0  0  0  0  0  0  0  0  0  0  0  0
   -0.7145   -1.2375    0.0000 C   0  0  0  0  0  0  0  0  0  0  0  0
    0.0000   -1.6500    0.0000 C   0  0  0  0  0  0  0  0  0  0  0  0
    0.7145   -1.2375    0.0000 C   0  0  0  0  0  0  0  0  0  0  0  0
    0.7145   -0.4125    0.0000 C   0  0  0  0  0  0  0  0  0  0  0  0
    0.0000   -0.0000    0.0000 C   0  0  0  0  0  0  0  0  0  0  0  0
   -0.7145   -0.4125    0.0000 C   0  0  0  0  0  0  0  0  0  0  0  0
    1.4289   -0.0000    0.0000 C   0  0  0  0  0  0  0  0  0  0  0  0
    2.1434   -0.4125    0.0000 C   0  0  0  0  0  0  0  0  0  0  0  0
    2.1434   -1.2375    0.0000 C   0  0  0  0  0  0  0  0  0  0  0  0
    1.4289   -1.6500    0.0000 O   0  0  0  0  0  0  0  0  0  0  0  0
    2.8579   -1.6500    0.0000 O   0  0  0  0  0  0  0  0  0  0  0  0
   -1.4289   -0.0000    0.0000 O   0  0  0  0  0  0  0  0  0  0  0  0
   -2.1434   -0.4125    0.0000 C   0  0  0  0  0  0  0  0  0  0  0  0
  1  2  1  0  0  0  0
  2  3  1  0  0  0  0
  2  4  2  0  0  0  0
  1  5  2  0  0  0  0
  5  6  1  0  0  0  0
  6  7  2  0  0  0  0
  7  8  1  0  0  0  0
  8  9  2  0  0  0  0
  1  9  1  0  0  0  0
 11 12  1  0  0  0  0
 12 13  2  0  0  0  0
 14 15  1  0  0  0  0
 15 16  2  0  0  0  0
 16 17  1  0  0  0  0
 17 18  2  0  0  0  0
 18 19  1  0  0  0  0
 14 19  2  0  0  0  0
 17 20  1  0  0  0  0
 20 21  2  0  0  0  0
 21 22  1  0  0  0  0
 22 23  1  0  0  0  0
 16 23  1  0  0  0  0
 22 24  2  0  0  0  0
 25 26  1  0  0  0  0
 19 25  1  0  0  0  0
 12 21  1  0  0  0  0
 10 11  1  0  0  0  0
  6 10  1  0  0  0  0
M  END
>  <type>
systematic

$$$$
4-[[2-(5-Bromo-1H-indol-1-yl)-2-oxoethyl]amino]-2-hydroxybenzoic acid
  Mrv2401 11012421392D          

 24 26  0  0  0  0            999 V2000
   -2.5990   -3.6207    0.0000 C   0  0  0  0  0  0  0  0  0  0  0  0
   -3.4060   -3.7923    0.0000 C   0  0  0  0  0  0  0  0  0  0  0  0
   -3.6610   -4.5769    0.0000 O   0  0  0  0  0  0  0  0  0  0  0  0
   -3.9580   -3.1792    0.0000 O   0  0  0  0  0  0  0  0  0  0  0  0
   -2.3441   -2.8361    0.0000 C   0  0  0  0  0  0  0  0  0  0  0  0
   -1.5371   -2.6646    0.0000 C   0  0  0  0  0  0  0  0  0  0  0  0
   -0.9851   -3.2777    0.0000 C   0  0  0  0  0  0  0  0  0  0  0  0
   -1.2400   -4.0623    0.0000 C   0  0  0  0  0  0  0  0  0  0  0  0
   -2.0470   -4.2338    0.0000 C   0  0  0  0  0  0  0  0  0  0  0  0
   -2.8961   -2.2230    0.0000 O   0  0  0  0  0  0  0  0  0  0  0  0
   -0.1781   -3.1062    0.0000 N   0  0  0  0  0  0  0  0  0  0  0  0
    0.0768   -2.3215    0.0000 C   0  0  0  0  0  0  0  0  0  0  0  0
    0.8838   -2.1500    0.0000 C   0  0  0  0  0  0  0  0  0  0  0  0
    1.4358   -2.7631    0.0000 O   0  0  0  0  0  0  0  0  0  0  0  0
    0.6538   -0.6979    0.0000 C   0  0  0  0  0  0  0  0  0  0  0  0
    1.1387   -0.0305    0.0000 C   0  0  0  0  0  0  0  0  0  0  0  0
    1.9233   -0.2854    0.0000 C   0  0  0  0  0  0  0  0  0  0  0  0
    2.6378    0.1271    0.0000 C   0  0  0  0  0  0  0  0  0  0  0  0
    3.3523   -0.2854    0.0000 C   0  0  0  0  0  0  0  0  0  0  0  0
    3.3523   -1.1104    0.0000 C   0  0  0  0  0  0  0  0  0  0  0  0
    2.6378   -1.5229    0.0000 C   0  0  0  0  0  0  0  0  0  0  0  0
    1.9233   -1.1104    0.0000 C   0  0  0  0  0  0  0  0  0  0  0  0
    1.1387   -1.3654    0.0000 N   0  0  0  0  0  0  0  0  0  0  0  0
    4.0668    0.1271    0.0000 Br  0  0  0  0  0  0  0  0  0  0  0  0
  1  2  1  0  0  0  0
  2  3  1  0  0  0  0
  2  4  2  0  0  0  0
  1  5  2  0  0  0  0
  5  6  1  0  0  0  0
  6  7  2  0  0  0  0
  7  8  1  0  0  0  0
  8  9  2  0  0  0  0
  1  9  1  0  0  0  0
  5 10  1  0  0  0  0
 12 13  1  0  0  0  0
 13 14  2  0  0  0  0
 15 16  2  0  0  0  0
 16 17  1  0  0  0  0
 17 18  1  0  0  0  0
 18 19  2  0  0  0  0
 19 20  1  0  0  0  0
 20 21  2  0  0  0  0
 21 22  1  0  0  0  0
 17 22  2  0  0  0  0
 22 23  1  0  0  0  0
 15 23  1  0  0  0  0
 19 24  1  0  0  0  0
 13 23  1  0  0  0  0
 11 12  1  0  0  0  0
  7 11  1  0  0  0  0
M  END
>  <type>
systematic

$$$$
2-[2-[(1-Carboxycyclohexyl)amino]-1-oxopropyl]-3,4-dihydro-3(1H)-isoquinolinecarboxylic acid
  Mrv2401 11012421402D          

 27 29  0  0  0  0            999 V2000
   -0.7145   -1.2375    0.0000 C   0  0  0  0  0  0  0  0  0  0  0  0
    0.0000   -1.6500    0.0000 C   0  0  0  0  0  0  0  0  0  0  0  0
    0.7145   -1.2375    0.0000 C   0  0  0  0  0  0  0  0  0  0  0  0
    0.7145   -0.4125    0.0000 C   0  0  0  0  0  0  0  0  0  0  0  0
    0.0000   -0.0000    0.0000 C   0  0  0  0  0  0  0  0  0  0  0  0
   -0.7145   -0.4125    0.0000 C   0  0  0  0  0  0  0  0  0  0  0  0
    1.4289   -0.0000    0.0000 C   0  0  0  0  0  0  0  0  0  0  0  0
    2.1434   -0.4125    0.0000 C   0  0  0  0  0  0  0  0  0  0  0  0
    2.1434   -1.2375    0.0000 N   0  0  0  0  0  0  0  0  0  0  0  0
    1.4289   -1.6500    0.0000 C   0  0  0  0  0  0  0  0  0  0  0  0
    2.8579   -0.0000    0.0000 C   0  0  0  0  0  0  0  0  0  0  0  0
    2.8579    0.8250    0.0000 O   0  0  0  0  0  0  0  0  0  0  0  0
    3.5724   -0.4125    0.0000 O   0  0  0  0  0  0  0  0  0  0  0  0
    2.8579   -1.6500    0.0000 C   0  0  0  0  0  0  0  0  0  0  0  0
    2.8579   -2.4750    0.0000 C   0  0  0  0  0  0  0  0  0  0  0  0
    3.5724   -2.8875    0.0000 C   0  0  0  0  0  0  0  0  0  0  0  0
    3.5724   -1.2375    0.0000 O   0  0  0  0  0  0  0  0  0  0  0  0
    2.1434   -2.8875    0.0000 N   0  0  0  0  0  0  0  0  0  0  0  0
    2.1434   -3.7125    0.0000 C   0  0  0  0  0  0  0  0  0  0  0  0
    1.7062   -4.4121    0.0000 C   0  0  0  0  0  0  0  0  0  0  0  0
    2.0935   -5.1406    0.0000 C   0  0  0  0  0  0  0  0  0  0  0  0
    2.9180   -5.1694    0.0000 C   0  0  0  0  0  0  0  0  0  0  0  0
    3.3552   -4.4697    0.0000 C   0  0  0  0  0  0  0  0  0  0  0  0
    2.9679   -3.7413    0.0000 C   0  0  0  0  0  0  0  0  0  0  0  0
    1.4595   -3.2512    0.0000 C   0  0  0  0  0  0  0  0  0  0  0  0
    1.5170   -2.4282    0.0000 O   0  0  0  0  0  0  0  0  0  0  0  0
    0.7180   -3.6128    0.0000 O   0  0  0  0  0  0  0  0  0  0  0  0
  1  2  2  0  0  0  0
  2  3  1  0  0  0  0
  3  4  2  0  0  0  0
  4  5  1  0  0  0  0
  5  6  2  0  0  0  0
  1  6  1  0  0  0  0
  4  7  1  0  0  0  0
  7  8  1  0  0  0  0
  8  9  1  0  0  0  0
  9 10  1  0  0  0  0
  3 10  1  0  0  0  0
 11 12  1  0  0  0  0
 11 13  2  0  0  0  0
  8 11  1  0  0  0  0
 14 15  1  0  0  0  0
 15 16  1  0  0  0  0
 14 17  2  0  0  0  0
 19 20  1  0  0  0  0
 20 21  1  0  0  0  0
 21 22  1  0  0  0  0
 22 23  1  0  0  0  0
 23 24  1  0  0  0  0
 19 24  1  0  0  0  0
 25 26  1  0  0  0  0
 25 27  2  0  0  0  0
 19 25  1  0  0  0  0
 18 19  1  0  0  0  0
 15 18  1  0  0  0  0
  9 14  1  0  0  0  0
M  END
>  <type>
systematic

$$$$
3-[2-[(2-Carboxyphenyl)amino]acetyl]-2-(2-hydroxyphenyl)-4-thiazolidinecarboxylic acid
  Mrv2401 11012421412D          

 28 30  0  0  0  0            999 V2000
    3.1637   -3.8062    0.0000 S   0  0  0  0  0  0  0  0  0  0  0  0
    2.3387   -3.8062    0.0000 C   0  0  0  0  0  0  0  0  0  0  0  0
    2.0837   -3.0215    0.0000 N   0  0  0  0  0  0  0  0  0  0  0  0
    2.7512   -2.5366    0.0000 C   0  0  0  0  0  0  0  0  0  0  0  0
    3.4186   -3.0215    0.0000 C   0  0  0  0  0  0  0  0  0  0  0  0
    2.7512   -1.7116    0.0000 C   0  0  0  0  0  0  0  0  0  0  0  0
    3.4656   -1.2991    0.0000 O   0  0  0  0  0  0  0  0  0  0  0  0
    2.0367   -1.2991    0.0000 O   0  0  0  0  0  0  0  0  0  0  0  0
    1.8538   -4.4736    0.0000 C   0  0  0  0  0  0  0  0  0  0  0  0
    2.1893   -5.2273    0.0000 C   0  0  0  0  0  0  0  0  0  0  0  0
    1.7044   -5.8947    0.0000 C   0  0  0  0  0  0  0  0  0  0  0  0
    0.8839   -5.8085    0.0000 C   0  0  0  0  0  0  0  0  0  0  0  0
    0.5484   -5.0548    0.0000 C   0  0  0  0  0  0  0  0  0  0  0  0
    1.0333   -4.3874    0.0000 C   0  0  0  0  0  0  0  0  0  0  0  0
    3.0098   -5.3135    0.0000 O   0  0  0  0  0  0  0  0  0  0  0  0
    1.2991   -2.7666    0.0000 C   0  0  0  0  0  0  0  0  0  0  0  0
    0.6860   -3.3186    0.0000 O   0  0  0  0  0  0  0  0  0  0  0  0
    1.1276   -1.9596    0.0000 C   0  0  0  0  0  0  0  0  0  0  0  0
    0.3430   -1.7047    0.0000 N   0  0  0  0  0  0  0  0  0  0  0  0
    0.1714   -0.8977    0.0000 C   0  0  0  0  0  0  0  0  0  0  0  0
   -0.6132   -0.6428    0.0000 C   0  0  0  0  0  0  0  0  0  0  0  0
   -0.7847    0.1642    0.0000 C   0  0  0  0  0  0  0  0  0  0  0  0
   -0.1716    0.7162    0.0000 C   0  0  0  0  0  0  0  0  0  0  0  0
    0.6130    0.4613    0.0000 C   0  0  0  0  0  0  0  0  0  0  0  0
    0.7845   -0.3457    0.0000 C   0  0  0  0  0  0  0  0  0  0  0  0
   -1.2263   -1.1948    0.0000 C   0  0  0  0  0  0  0  0  0  0  0  0
   -2.0109   -0.9399    0.0000 O   0  0  0  0  0  0  0  0  0  0  0  0
   -1.0547   -2.0018    0.0000 O   0  0  0  0  0  0  0  0  0  0  0  0
  1  2  1  0  0  0  0
  2  3  1  0  0  0  0
  3  4  1  0  0  0  0
  4  5  1  0  0  0  0
  1  5  1  0  0  0  0
  6  7  1  0  0  0  0
  6  8  2  0  0  0  0
  4  6  1  0  0  0  0
  9 10  2  0  0  0  0
 10 11  1  0  0  0  0
 11 12  2  0  0  0  0
 12 13  1  0  0  0  0
 13 14  2  0  0  0  0
  9 14  1  0  0  0  0
 10 15  1  0  0  0  0
  2  9  1  0  0  0  0
 16 17  2  0  0  0  0
 16 18  1  0  0  0  0
 20 21  2  0  0  0  0
 21 22  1  0  0  0  0
 22 23  2  0  0  0  0
 23 24  1  0  0  0  0
 24 25  2  0  0  0  0
 20 25  1  0  0  0  0
 26 27  1  0  0  0  0
 26 28  2  0  0  0  0
 21 26  1  0  0  0  0
 19 20  1  0  0  0  0
 18 19  1  0  0  0  0
  3 16  1  0  0  0  0
M  END
>  <type>
systematic

$$$$
4′-(Dimethylamino)-4-[(2-hydroxy-2-phenylacetyl)amino][1,1′-biphenyl]-2-carboxylic acid
  Mrv2401 11012421422D          

 29 31  0  0  0  0            999 V2000
    2.8579   -2.4750    0.0000 C   0  0  0  0  0  0  0  0  0  0  0  0
    3.5724   -2.8875    0.0000 C   0  0  0  0  0  0  0  0  0  0  0  0
    3.5724   -3.7125    0.0000 C   0  0  0  0  0  0  0  0  0  0  0  0
    2.8579   -4.1250    0.0000 C   0  0  0  0  0  0  0  0  0  0  0  0
    2.1434   -3.7125    0.0000 C   0  0  0  0  0  0  0  0  0  0  0  0
    2.1434   -2.8875    0.0000 C   0  0  0  0  0  0  0  0  0  0  0  0
    2.8579   -1.6500    0.0000 C   0  0  0  0  0  0  0  0  0  0  0  0
    2.1434   -1.2375    0.0000 C   0  0  0  0  0  0  0  0  0  0  0  0
    2.1434   -0.4125    0.0000 C   0  0  0  0  0  0  0  0  0  0  0  0
    2.8579    0.0000    0.0000 C   0  0  0  0  0  0  0  0  0  0  0  0
    3.5724   -0.4125    0.0000 C   0  0  0  0  0  0  0  0  0  0  0  0
    3.5724   -1.2375    0.0000 C   0  0  0  0  0  0  0  0  0  0  0  0
    4.2868   -2.4750    0.0000 C   0  0  0  0  0  0  0  0  0  0  0  0
    5.0013   -2.8875    0.0000 O   0  0  0  0  0  0  0  0  0  0  0  0
    4.2868   -1.6500    0.0000 O   0  0  0  0  0  0  0  0  0  0  0  0
    2.8579   -4.9500    0.0000 N   0  0  0  0  0  0  0  0  0  0  0  0
    2.1434   -5.3625    0.0000 C   0  0  0  0  0  0  0  0  0  0  0  0
    1.4289   -4.9500    0.0000 O   0  0  0  0  0  0  0  0  0  0  0  0
    2.1434   -6.1875    0.0000 C   0  0  0  0  0  0  0  0  0  0  0  0
    1.4289   -6.6000    0.0000 C   0  0  0  0  0  0  0  0  0  0  0  0
    1.4289   -7.4250    0.0000 C   0  0  0  0  0  0  0  0  0  0  0  0
    0.7145   -7.8375    0.0000 C   0  0  0  0  0  0  0  0  0  0  0  0
    0.0000   -7.4250    0.0000 C   0  0  0  0  0  0  0  0  0  0  0  0
    0.0000   -6.6000    0.0000 C   0  0  0  0  0  0  0  0  0  0  0  0
    0.7145   -6.1875    0.0000 C   0  0  0  0  0  0  0  0  0  0  0  0
    2.8579   -6.6000    0.0000 O   0  0  0  0  0  0  0  0  0  0  0  0
    2.8579    0.8250    0.0000 N   0  0  0  0  0  0  0  0  0  0  0  0
    2.1434    1.2375    0.0000 C   0  0  0  0  0  0  0  0  0  0  0  0
    3.5724    1.2375    0.0000 C   0  0  0  0  0  0  0  0  0  0  0  0
  1  2  2  0  0  0  0
  2  3  1  0  0  0  0
  3  4  2  0  0  0  0
  4  5  1  0  0  0  0
  5  6  2  0  0  0  0
  1  6  1  0  0  0  0
  7  8  2  0  0  0  0
  8  9  1  0  0  0  0
  9 10  2  0  0  0  0
 10 11  1  0  0  0  0
 11 12  2  0  0  0  0
  7 12  1  0  0  0  0
  1  7  1  0  0  0  0
 13 14  1  0  0  0  0
 13 15  2  0  0  0  0
  2 13  1  0  0  0  0
 17 18  2  0  0  0  0
 17 19  1  0  0  0  0
 20 21  2  0  0  0  0
 21 22  1  0  0  0  0
 22 23  2  0  0  0  0
 23 24  1  0  0  0  0
 24 25  2  0  0  0  0
 20 25  1  0  0  0  0
 19 20  1  0  0  0  0
 19 26  1  0  0  0  0
 16 17  1  0  0  0  0
  4 16  1  0  0  0  0
 27 28  1  0  0  0  0
 27 29  1  0  0  0  0
 10 27  1  0  0  0  0
M  END
>  <type>
systematic

$$$$
4′-(1,1-Dimethylethyl)-4-[(2-hydroxy-2-phenylacetyl)amino][1,1′-biphenyl]-2-carboxylic acid
  Mrv2401 11012421442D          

 30 32  0  0  0  0            999 V2000
    2.8579   -2.4750    0.0000 C   0  0  0  0  0  0  0  0  0  0  0  0
    3.5724   -2.8875    0.0000 C   0  0  0  0  0  0  0  0  0  0  0  0
    3.5724   -3.7125    0.0000 C   0  0  0  0  0  0  0  0  0  0  0  0
    2.8579   -4.1250    0.0000 C   0  0  0  0  0  0  0  0  0  0  0  0
    2.1434   -3.7125    0.0000 C   0  0  0  0  0  0  0  0  0  0  0  0
    2.1434   -2.8875    0.0000 C   0  0  0  0  0  0  0  0  0  0  0  0
    2.8579   -1.6500    0.0000 C   0  0  0  0  0  0  0  0  0  0  0  0
    2.1434   -1.2375    0.0000 C   0  0  0  0  0  0  0  0  0  0  0  0
    2.1434   -0.4125    0.0000 C   0  0  0  0  0  0  0  0  0  0  0  0
    2.8579    0.0000    0.0000 C   0  0  0  0  0  0  0  0  0  0  0  0
    3.5724   -0.4125    0.0000 C   0  0  0  0  0  0  0  0  0  0  0  0
    3.5724   -1.2375    0.0000 C   0  0  0  0  0  0  0  0  0  0  0  0
    4.2868   -2.4750    0.0000 C   0  0  0  0  0  0  0  0  0  0  0  0
    5.0013   -2.8875    0.0000 O   0  0  0  0  0  0  0  0  0  0  0  0
    4.2868   -1.6500    0.0000 O   0  0  0  0  0  0  0  0  0  0  0  0
    2.8579   -4.9500    0.0000 N   0  0  0  0  0  0  0  0  0  0  0  0
    2.1434   -5.3625    0.0000 C   0  0  0  0  0  0  0  0  0  0  0  0
    1.4289   -4.9500    0.0000 O   0  0  0  0  0  0  0  0  0  0  0  0
    2.1434   -6.1875    0.0000 C   0  0  0  0  0  0  0  0  0  0  0  0
    1.4289   -6.6000    0.0000 C   0  0  0  0  0  0  0  0  0  0  0  0
    1.4289   -7.4250    0.0000 C   0  0  0  0  0  0  0  0  0  0  0  0
    0.7145   -7.8375    0.0000 C   0  0  0  0  0  0  0  0  0  0  0  0
    0.0000   -7.4250    0.0000 C   0  0  0  0  0  0  0  0  0  0  0  0
    0.0000   -6.6000    0.0000 C   0  0  0  0  0  0  0  0  0  0  0  0
    0.7145   -6.1875    0.0000 C   0  0  0  0  0  0  0  0  0  0  0  0
    2.8579   -6.6000    0.0000 O   0  0  0  0  0  0  0  0  0  0  0  0
    2.8579    0.8250    0.0000 C   0  0  0  0  0  0  0  0  0  0  0  0
    2.8579    1.6500    0.0000 C   0  0  0  0  0  0  0  0  0  0  0  0
    3.6829    0.8250    0.0000 C   0  0  0  0  0  0  0  0  0  0  0  0
    2.0329    0.8250    0.0000 C   0  0  0  0  0  0  0  0  0  0  0  0
  1  2  2  0  0  0  0
  2  3  1  0  0  0  0
  3  4  2  0  0  0  0
  4  5  1  0  0  0  0
  5  6  2  0  0  0  0
  1  6  1  0  0  0  0
  7  8  2  0  0  0  0
  8  9  1  0  0  0  0
  9 10  2  0  0  0  0
 10 11  1  0  0  0  0
 11 12  2  0  0  0  0
  7 12  1  0  0  0  0
  1  7  1  0  0  0  0
 13 14  1  0  0  0  0
 13 15  2  0  0  0  0
  2 13  1  0  0  0  0
 17 18  2  0  0  0  0
 17 19  1  0  0  0  0
 20 21  2  0  0  0  0
 21 22  1  0  0  0  0
 22 23  2  0  0  0  0
 23 24  1  0  0  0  0
 24 25  2  0  0  0  0
 20 25  1  0  0  0  0
 19 20  1  0  0  0  0
 19 26  1  0  0  0  0
 16 17  1  0  0  0  0
  4 16  1  0  0  0  0
 27 28  1  0  0  0  0
 27 29  1  0  0  0  0
 27 30  1  0  0  0  0
 10 27  1  0  0  0  0
M  END
>  <type>
systematic

$$$$
4-[[2-[(2S)-2-Cyano-4,4-difluoro-1-pyrrolidinyl]-2-oxoethyl]amino]bicyclo[2.2.2]octane-1-carboxylic acid
  Mrv2401 11012421452D          

 24 26  0  0  1  0            999 V2000
    0.8106   -0.2459    0.0000 C   0  0  0  0  0  0  0  0  0  0  0  0
    0.0962    0.1666    0.0000 C   0  0  0  0  0  0  0  0  0  0  0  0
    0.0962    0.9916    0.0000 C   0  0  0  0  0  0  0  0  0  0  0  0
    1.5251    0.1666    0.0000 C   0  0  0  0  0  0  0  0  0  0  0  0
    1.5251    0.9916    0.0000 C   0  0  0  0  0  0  0  0  0  0  0  0
    0.8106    1.4041    0.0000 C   0  0  0  0  0  0  0  0  0  0  0  0
    0.9481    0.8541    0.0000 C   0  0  0  0  0  0  0  0  0  0  0  0
    0.9481    0.3041    0.0000 C   0  0  0  0  0  0  0  0  0  0  0  0
    0.8106   -1.0709    0.0000 C   0  0  0  0  0  0  0  0  0  0  0  0
    0.0962   -1.4834    0.0000 O   0  0  0  0  0  0  0  0  0  0  0  0
    1.5251   -1.4834    0.0000 O   0  0  0  0  0  0  0  0  0  0  0  0
    0.8106    2.2291    0.0000 N   0  0  0  0  0  0  0  0  0  0  0  0
    0.0962    2.6416    0.0000 C   0  0  0  0  0  0  0  0  0  0  0  0
    0.0962    3.4666    0.0000 C   0  0  0  0  0  0  0  0  0  0  0  0
    0.8106    3.8791    0.0000 O   0  0  0  0  0  0  0  0  0  0  0  0
   -0.6183    3.8791    0.0000 N   0  0  0  0  0  0  0  0  0  0  0  0
   -1.3720    3.5435    0.0000 C   0  0  1  0  0  0  0  0  0  0  0  0
   -1.9240    4.1566    0.0000 C   0  0  0  0  0  0  0  0  0  0  0  0
   -1.5115    4.8711    0.0000 C   0  0  0  0  0  0  0  0  0  0  0  0
   -0.7045    4.6995    0.0000 C   0  0  0  0  0  0  0  0  0  0  0  0
   -2.1738    5.3630    0.0000 F   0  0  0  0  0  0  0  0  0  0  0  0
   -1.4339    5.6924    0.0000 F   0  0  0  0  0  0  0  0  0  0  0  0
   -1.5435    2.7365    0.0000 C   0  0  0  0  0  0  0  0  0  0  0  0
   -1.7150    1.9296    0.0000 N   0  0  0  0  0  0  0  0  0  0  0  0
  1  2  1  0  0  0  0
  2  3  1  0  0  0  0
  1  4  1  0  0  0  0
  4  5  1  0  0  0  0
  5  6  1  0  0  0  0
  3  6  1  0  0  0  0
  6  7  1  0  0  0  0
  7  8  1  0  0  0  0
  1  8  1  0  0  0  0
  9 10  1  0  0  0  0
  9 11  2  0  0  0  0
  1  9  1  0  0  0  0
 13 14  1  0  0  0  0
 14 15  2  0  0  0  0
 17 16  1  0  0  0  0
 17 18  1  0  0  0  0
 18 19  1  0  0  0  0
 19 20  1  0  0  0  0
 16 20  1  0  0  0  0
 19 21  1  0  0  0  0
 19 22  1  0  0  0  0
 23 24  3  0  0  0  0
 17 23  1  6  0  0  0
 14 16  1  0  0  0  0
 12 13  1  0  0  0  0
  6 12  1  0  0  0  0
M  END
>  <type>
systematic

$$$$
2-Methyl-4-oxo-4H-1-benzothiopyran-8-carboxylic acid 2- (4-carboxyphenyl)hydrazide
  Mrv2401 11012421452D          

 25 27  0  0  0  0            999 V2000
   -0.7145   -1.2375    0.0000 C   0  0  0  0  0  0  0  0  0  0  0  0
    0.0000   -1.6500    0.0000 C   0  0  0  0  0  0  0  0  0  0  0  0
    0.7145   -1.2375    0.0000 C   0  0  0  0  0  0  0  0  0  0  0  0
    0.7145   -0.4125    0.0000 C   0  0  0  0  0  0  0  0  0  0  0  0
    0.0000   -0.0000    0.0000 C   0  0  0  0  0  0  0  0  0  0  0  0
   -0.7145   -0.4125    0.0000 C   0  0  0  0  0  0  0  0  0  0  0  0
    1.4289   -0.0000    0.0000 C   0  0  0  0  0  0  0  0  0  0  0  0
    2.1434   -0.4125    0.0000 C   0  0  0  0  0  0  0  0  0  0  0  0
    2.1434   -1.2375    0.0000 C   0  0  0  0  0  0  0  0  0  0  0  0
    1.4289   -1.6500    0.0000 S   0  0  0  0  0  0  0  0  0  0  0  0
    0.0000   -2.4750    0.0000 C   0  0  0  0  0  0  0  0  0  0  0  0
    0.7145   -2.8875    0.0000 O   0  0  0  0  0  0  0  0  0  0  0  0
   -0.7145   -3.7125    0.0000 N   0  0  0  0  0  0  0  0  0  0  0  0
   -0.7145   -2.8875    0.0000 N   0  0  0  0  0  0  0  0  0  0  0  0
   -1.4289   -4.1250    0.0000 C   0  0  0  0  0  0  0  0  0  0  0  0
   -1.4289   -4.9500    0.0000 C   0  0  0  0  0  0  0  0  0  0  0  0
   -2.1434   -5.3625    0.0000 C   0  0  0  0  0  0  0  0  0  0  0  0
   -2.8579   -4.9500    0.0000 C   0  0  0  0  0  0  0  0  0  0  0  0
   -2.8579   -4.1250    0.0000 C   0  0  0  0  0  0  0  0  0  0  0  0
   -2.1434   -3.7125    0.0000 C   0  0  0  0  0  0  0  0  0  0  0  0
   -3.5724   -5.3625    0.0000 C   0  0  0  0  0  0  0  0  0  0  0  0
   -3.5724   -6.1875    0.0000 O   0  0  0  0  0  0  0  0  0  0  0  0
   -4.2868   -4.9500    0.0000 O   0  0  0  0  0  0  0  0  0  0  0  0
    1.4289    0.8250    0.0000 O   0  0  0  0  0  0  0  0  0  0  0  0
    2.8579   -1.6500    0.0000 C   0  0  0  0  0  0  0  0  0  0  0  0
  1  2  2  0  0  0  0
  2  3  1  0  0  0  0
  3  4  2  0  0  0  0
  4  5  1  0  0  0  0
  5  6  2  0  0  0  0
  1  6  1  0  0  0  0
  4  7  1  0  0  0  0
  7  8  1  0  0  0  0
  8  9  2  0  0  0  0
  9 10  1  0  0  0  0
  3 10  1  0  0  0  0
 11 12  2  0  0  0  0
  2 11  1  0  0  0  0
 13 14  1  0  0  0  0
 15 16  2  0  0  0  0
 16 17  1  0  0  0  0
 17 18  2  0  0  0  0
 18 19  1  0  0  0  0
 19 20  2  0  0  0  0
 15 20  1  0  0  0  0
 21 22  1  0  0  0  0
 21 23  2  0  0  0  0
 18 21  1  0  0  0  0
 13 15  1  0  0  0  0
 11 14  1  0  0  0  0
  7 24  2  0  0  0  0
  9 25  1  0  0  0  0
M  END
>  <type>
systematic

$$$$
2-(2-Furanyl)-5-[(2-hydroxy-2-phenylacetyl)amino]benzoic acid
  Mrv2401 11012423192D          

 25 27  0  0  0  0            999 V2000
    5.6091   -2.5366    0.0000 C   0  0  0  0  0  0  0  0  0  0  0  0
    6.3235   -2.9491    0.0000 C   0  0  0  0  0  0  0  0  0  0  0  0
    7.0380   -2.5366    0.0000 O   0  0  0  0  0  0  0  0  0  0  0  0
    6.3235   -3.7741    0.0000 O   0  0  0  0  0  0  0  0  0  0  0  0
    4.8946   -2.9491    0.0000 C   0  0  0  0  0  0  0  0  0  0  0  0
    4.1801   -2.5366    0.0000 C   0  0  0  0  0  0  0  0  0  0  0  0
    4.1801   -1.7116    0.0000 C   0  0  0  0  0  0  0  0  0  0  0  0
    4.8946   -1.2991    0.0000 C   0  0  0  0  0  0  0  0  0  0  0  0
    5.6091   -1.7116    0.0000 C   0  0  0  0  0  0  0  0  0  0  0  0
    4.8946   -0.4741    0.0000 N   0  0  0  0  0  0  0  0  0  0  0  0
    5.6091   -0.0616    0.0000 C   0  0  0  0  0  0  0  0  0  0  0  0
    6.3235   -0.4741    0.0000 O   0  0  0  0  0  0  0  0  0  0  0  0
    5.6091    0.7634    0.0000 C   0  0  0  0  0  0  0  0  0  0  0  0
    6.3235    1.1759    0.0000 C   0  0  0  0  0  0  0  0  0  0  0  0
    6.3235    2.0009    0.0000 C   0  0  0  0  0  0  0  0  0  0  0  0
    7.0380    2.4134    0.0000 C   0  0  0  0  0  0  0  0  0  0  0  0
    7.7525    2.0009    0.0000 C   0  0  0  0  0  0  0  0  0  0  0  0
    7.7525    1.1759    0.0000 C   0  0  0  0  0  0  0  0  0  0  0  0
    7.0380    0.7634    0.0000 C   0  0  0  0  0  0  0  0  0  0  0  0
    4.8946    1.1759    0.0000 O   0  0  0  0  0  0  0  0  0  0  0  0
    4.2272   -4.2590    0.0000 O   0  0  0  0  0  0  0  0  0  0  0  0
    4.8946   -3.7741    0.0000 C   0  0  0  0  0  0  0  0  0  0  0  0
    5.5620   -4.2590    0.0000 C   0  0  0  0  0  0  0  0  0  0  0  0
    5.3071   -5.0437    0.0000 C   0  0  0  0  0  0  0  0  0  0  0  0
    4.4821   -5.0437    0.0000 C   0  0  0  0  0  0  0  0  0  0  0  0
  1  2  1  0  0  0  0
  2  3  1  0  0  0  0
  2  4  2  0  0  0  0
  1  5  2  0  0  0  0
  5  6  1  0  0  0  0
  6  7  2  0  0  0  0
  7  8  1  0  0  0  0
  8  9  2  0  0  0  0
  1  9  1  0  0  0  0
 11 12  2  0  0  0  0
 11 13  1  0  0  0  0
 14 15  2  0  0  0  0
 15 16  1  0  0  0  0
 16 17  2  0  0  0  0
 17 18  1  0  0  0  0
 18 19  2  0  0  0  0
 14 19  1  0  0  0  0
 13 14  1  0  0  0  0
 13 20  1  0  0  0  0
 10 11  1  0  0  0  0
  8 10  1  0  0  0  0
 21 22  1  0  0  0  0
 22 23  2  0  0  0  0
 23 24  1  0  0  0  0
 24 25  2  0  0  0  0
 21 25  1  0  0  0  0
  5 22  1  0  0  0  0
M  END
>  <type>
systematic

$$$$
3-[[2-(8-Methoxy-2-oxo-2H-1-benzopyran-3-yl)-2-oxoethyl]amino]benzoic acid
  Mrv2401 11012423192D          

 26 28  0  0  0  0            999 V2000
    5.7158   -1.6500    0.0000 C   0  0  0  0  0  0  0  0  0  0  0  0
    5.7158   -2.4750    0.0000 C   0  0  0  0  0  0  0  0  0  0  0  0
    6.4302   -2.8875    0.0000 O   0  0  0  0  0  0  0  0  0  0  0  0
    5.0013   -2.8875    0.0000 O   0  0  0  0  0  0  0  0  0  0  0  0
    5.0013   -1.2375    0.0000 C   0  0  0  0  0  0  0  0  0  0  0  0
    5.0013   -0.4125    0.0000 C   0  0  0  0  0  0  0  0  0  0  0  0
    5.7158   -0.0000    0.0000 C   0  0  0  0  0  0  0  0  0  0  0  0
    6.4302   -0.4125    0.0000 C   0  0  0  0  0  0  0  0  0  0  0  0
    6.4302   -1.2375    0.0000 C   0  0  0  0  0  0  0  0  0  0  0  0
    4.2868   -0.0000    0.0000 N   0  0  0  0  0  0  0  0  0  0  0  0
    3.5724   -0.4125    0.0000 C   0  0  0  0  0  0  0  0  0  0  0  0
    2.8579   -0.0000    0.0000 C   0  0  0  0  0  0  0  0  0  0  0  0
    2.8579    0.8250    0.0000 O   0  0  0  0  0  0  0  0  0  0  0  0
   -0.7145   -1.2375    0.0000 C   0  0  0  0  0  0  0  0  0  0  0  0
    0.0000   -1.6500    0.0000 C   0  0  0  0  0  0  0  0  0  0  0  0
    0.7145   -1.2375    0.0000 C   0  0  0  0  0  0  0  0  0  0  0  0
    0.7145   -0.4125    0.0000 C   0  0  0  0  0  0  0  0  0  0  0  0
    0.0000   -0.0000    0.0000 C   0  0  0  0  0  0  0  0  0  0  0  0
   -0.7145   -0.4125    0.0000 C   0  0  0  0  0  0  0  0  0  0  0  0
    1.4289   -0.0000    0.0000 C   0  0  0  0  0  0  0  0  0  0  0  0
    2.1434   -0.4125    0.0000 C   0  0  0  0  0  0  0  0  0  0  0  0
    2.1434   -1.2375    0.0000 C   0  0  0  0  0  0  0  0  0  0  0  0
    1.4289   -1.6500    0.0000 O   0  0  0  0  0  0  0  0  0  0  0  0
    2.8579   -1.6500    0.0000 O   0  0  0  0  0  0  0  0  0  0  0  0
    0.0000   -2.4750    0.0000 O   0  0  0  0  0  0  0  0  0  0  0  0
   -0.7145   -2.8875    0.0000 C   0  0  0  0  0  0  0  0  0  0  0  0
  1  2  1  0  0  0  0
  2  3  1  0  0  0  0
  2  4  2  0  0  0  0
  1  5  2  0  0  0  0
  5  6  1  0  0  0  0
  6  7  2  0  0  0  0
  7  8  1  0  0  0  0
  8  9  2  0  0  0  0
  1  9  1  0  0  0  0
 11 12  1  0  0  0  0
 12 13  2  0  0  0  0
 14 15  1  0  0  0  0
 15 16  2  0  0  0  0
 16 17  1  0  0  0  0
 17 18  2  0  0  0  0
 18 19  1  0  0  0  0
 14 19  2  0  0  0  0
 17 20  1  0  0  0  0
 20 21  2  0  0  0  0
 21 22  1  0  0  0  0
 22 23  1  0  0  0  0
 16 23  1  0  0  0  0
 22 24  2  0  0  0  0
 25 26  1  0  0  0  0
 15 25  1  0  0  0  0
 12 21  1  0  0  0  0
 10 11  1  0  0  0  0
  6 10  1  0  0  0  0
M  END
>  <type>
systematic

$$$$
3-(2-Benzoylhydrazinylidene)-2,3-dihydro-2-oxo-1H-indole-6-carboxylic acid
  Mrv2401 11012423202D          

 23 25  0  0  0  0            999 V2000
    0.6538   -0.6979    0.0000 C   0  0  0  0  0  0  0  0  0  0  0  0
    1.1387   -0.0305    0.0000 C   0  0  0  0  0  0  0  0  0  0  0  0
    1.9233   -0.2854    0.0000 C   0  0  0  0  0  0  0  0  0  0  0  0
    2.6378    0.1271    0.0000 C   0  0  0  0  0  0  0  0  0  0  0  0
    3.3523   -0.2854    0.0000 C   0  0  0  0  0  0  0  0  0  0  0  0
    3.3523   -1.1104    0.0000 C   0  0  0  0  0  0  0  0  0  0  0  0
    2.6378   -1.5229    0.0000 C   0  0  0  0  0  0  0  0  0  0  0  0
    1.9233   -1.1104    0.0000 C   0  0  0  0  0  0  0  0  0  0  0  0
    1.1387   -1.3654    0.0000 N   0  0  0  0  0  0  0  0  0  0  0  0
    4.0668   -1.5229    0.0000 C   0  0  0  0  0  0  0  0  0  0  0  0
    4.0668   -2.3479    0.0000 O   0  0  0  0  0  0  0  0  0  0  0  0
    4.7812   -1.1104    0.0000 O   0  0  0  0  0  0  0  0  0  0  0  0
   -0.1712   -0.6979    0.0000 O   0  0  0  0  0  0  0  0  0  0  0  0
    0.8838    0.7541    0.0000 N   0  0  0  0  0  0  0  0  0  0  0  0
    0.0768    0.9256    0.0000 N   0  0  0  0  0  0  0  0  0  0  0  0
   -0.1781    1.7103    0.0000 C   0  0  0  0  0  0  0  0  0  0  0  0
    0.3739    2.3234    0.0000 O   0  0  0  0  0  0  0  0  0  0  0  0
   -0.9851    1.8818    0.0000 C   0  0  0  0  0  0  0  0  0  0  0  0
   -1.5371    1.2687    0.0000 C   0  0  0  0  0  0  0  0  0  0  0  0
   -2.3441    1.4402    0.0000 C   0  0  0  0  0  0  0  0  0  0  0  0
   -2.5990    2.2248    0.0000 C   0  0  0  0  0  0  0  0  0  0  0  0
   -2.0470    2.8379    0.0000 C   0  0  0  0  0  0  0  0  0  0  0  0
   -1.2400    2.6664    0.0000 C   0  0  0  0  0  0  0  0  0  0  0  0
  1  2  1  0  0  0  0
  2  3  1  0  0  0  0
  3  4  2  0  0  0  0
  4  5  1  0  0  0  0
  5  6  2  0  0  0  0
  6  7  1  0  0  0  0
  7  8  2  0  0  0  0
  3  8  1  0  0  0  0
  8  9  1  0  0  0  0
  1  9  1  0  0  0  0
 10 11  1  0  0  0  0
 10 12  2  0  0  0  0
  6 10  1  0  0  0  0
  1 13  2  0  0  0  0
 14 15  1  4  0  0  0
 16 17  2  0  0  0  0
 16 18  1  0  0  0  0
 18 19  2  0  0  0  0
 19 20  1  0  0  0  0
 20 21  2  0  0  0  0
 21 22  1  0  0  0  0
 22 23  2  0  0  0  0
 18 23  1  0  0  0  0
 15 16  1  0  0  0  0
  2 14  2  0  0  0  0
M  END
>  <type>
systematic

$$$$
5-Thia-1-azabicyclo[4.2.0]octane-2-carboxylic acid, 7-[(hydroxyphenylacetyl)amino]-3-methylene-8-oxo-, [6 R-(6α,7β)]-
  Mrv2401 11012423202D          

 24 26  0  0  1  0            999 V2000
    1.6905   -0.1510    0.0000 N   0  0  0  0  0  0  0  0  0  0  0  0
    2.4049    0.2615    0.0000 C   0  0  0  0  0  0  0  0  0  0  0  0
    3.1194   -0.1510    0.0000 C   0  0  0  0  0  0  0  0  0  0  0  0
    3.1194   -0.9760    0.0000 C   0  0  0  0  0  0  0  0  0  0  0  0
    2.4049   -1.3885    0.0000 S   0  0  0  0  0  0  0  0  0  0  0  0
    1.6905   -0.9760    0.0000 C   0  0  2  0  0  0  0  0  0  0  0  0
    0.8655   -0.9760    0.0000 C   0  0  2  0  0  0  0  0  0  0  0  0
    0.8655   -0.1510    0.0000 C   0  0  0  0  0  0  0  0  0  0  0  0
    2.4049    1.0865    0.0000 C   0  0  0  0  0  0  0  0  0  0  0  0
    3.1194    1.4990    0.0000 O   0  0  0  0  0  0  0  0  0  0  0  0
    1.6905    1.4990    0.0000 O   0  0  0  0  0  0  0  0  0  0  0  0
    0.2821    0.4324    0.0000 O   0  0  0  0  0  0  0  0  0  0  0  0
    3.8339    0.2615    0.0000 C   0  0  0  0  0  0  0  0  0  0  0  0
    0.2821   -1.5593    0.0000 N   0  0  0  0  0  0  0  0  0  0  0  0
   -0.5148   -1.3458    0.0000 C   0  0  0  0  0  0  0  0  0  0  0  0
   -0.7283   -0.5489    0.0000 O   0  0  0  0  0  0  0  0  0  0  0  0
   -1.0982   -1.9292    0.0000 C   0  0  0  0  0  0  0  0  0  0  0  0
   -1.8950   -1.7157    0.0000 C   0  0  0  0  0  0  0  0  0  0  0  0
   -2.4784   -2.2990    0.0000 C   0  0  0  0  0  0  0  0  0  0  0  0
   -3.2753   -2.0855    0.0000 C   0  0  0  0  0  0  0  0  0  0  0  0
   -3.4888   -1.2886    0.0000 C   0  0  0  0  0  0  0  0  0  0  0  0
   -2.9055   -0.7052    0.0000 C   0  0  0  0  0  0  0  0  0  0  0  0
   -2.1086   -0.9188    0.0000 C   0  0  0  0  0  0  0  0  0  0  0  0
   -0.8846   -2.7261    0.0000 O   0  0  0  0  0  0  0  0  0  0  0  0
  1  2  1  0  0  0  0
  2  3  1  0  0  0  0
  3  4  1  0  0  0  0
  4  5  1  0  0  0  0
  6  5  1  0  0  0  0
  6  1  1  6  0  0  0
  6  7  1  0  0  0  0
  7  8  1  0  0  0  0
  1  8  1  0  0  0  0
  9 10  1  0  0  0  0
  9 11  2  0  0  0  0
  2  9  1  0  0  0  0
  8 12  2  0  0  0  0
  3 13  2  0  0  0  0
 15 16  2  0  0  0  0
 15 17  1  0  0  0  0
 18 19  2  0  0  0  0
 19 20  1  0  0  0  0
 20 21  2  0  0  0  0
 21 22  1  0  0  0  0
 22 23  2  0  0  0  0
 18 23  1  0  0  0  0
 17 18  1  0  0  0  0
 17 24  1  0  0  0  0
 14 15  1  0  0  0  0
  7 14  1  1  0  0  0
M  END
>  <type>
systematic

$$$$
5-Thia-1-azabicyclo[4.2.0]octane-2-carboxylic acid, 7-[(hydroxyphenylacetyl)amino]-3-methylene-8-oxo-, [6 R-[6α,7β(R*)]]-
  Mrv2401 11012423222D          

  0  0  0     0  0            999 V3000
M  V30 BEGIN CTAB
M  V30 COUNTS 24 26 0 0 1
M  V30 BEGIN ATOM
M  V30 1 N 3.1555 -0.2818 0 0
M  V30 2 C 4.4892 0.4882 0 0
M  V30 3 C 5.8229 -0.2818 0 0
M  V30 4 C 5.8229 -1.8218 0 0
M  V30 5 S 4.4892 -2.5918 0 0
M  V30 6 C 3.1555 -1.8218 0 0 CFG=2
M  V30 7 C 1.6155 -1.8218 0 0 CFG=1
M  V30 8 C 1.6155 -0.2818 0 0
M  V30 9 C 4.4892 2.0282 0 0
M  V30 10 O 5.8229 2.7982 0 0
M  V30 11 O 3.1555 2.7982 0 0
M  V30 12 O 0.5266 0.8071 0 0
M  V30 13 C 7.1566 0.4882 0 0
M  V30 14 N 0.5266 -2.9108 0 0
M  V30 15 C -0.961 -2.5122 0 0
M  V30 16 O -1.3595 -1.0247 0 0
M  V30 17 C -2.0499 -3.6011 0 0
M  V30 18 C -3.5374 -3.2026 0 0
M  V30 19 C -4.6264 -4.2915 0 0
M  V30 20 C -6.1139 -3.8929 0 0
M  V30 21 C -6.5125 -2.4054 0 0
M  V30 22 C -5.4235 -1.3165 0 0
M  V30 23 C -3.936 -1.715 0 0
M  V30 24 O -1.6513 -5.0887 0 0
M  V30 END ATOM
M  V30 BEGIN BOND
M  V30 1 1 1 2
M  V30 2 1 2 3
M  V30 3 1 3 4
M  V30 4 1 4 5
M  V30 5 1 6 5
M  V30 6 1 6 1 CFG=3
M  V30 7 1 6 7
M  V30 8 1 7 8
M  V30 9 1 1 8
M  V30 10 1 9 10
M  V30 11 2 9 11
M  V30 12 1 2 9
M  V30 13 2 8 12
M  V30 14 2 3 13
M  V30 15 2 15 16
M  V30 16 1 15 17
M  V30 17 2 18 19
M  V30 18 1 19 20
M  V30 19 2 20 21
M  V30 20 1 21 22
M  V30 21 2 22 23
M  V30 22 1 18 23
M  V30 23 1 17 18
M  V30 24 1 17 24
M  V30 25 1 14 15
M  V30 26 1 7 14 CFG=3
M  V30 END BOND
M  V30 BEGIN COLLECTION
M  V30 MDLV30/STEREL1 ATOMS=(1 7)
M  V30 END COLLECTION
M  V30 END CTAB
M  END
>  <type>
systematic

$$$$
L-Proline, N -(3-carboxy-1,2,4-thiadiazol-5-yl)-L-leucyl-
  Mrv2401 11012423222D          

 24 25  0  0  1  0            999 V2000
    4.2380   -0.6039    0.0000 N   0  0  0  0  0  0  0  0  0  0  0  0
    4.3242    0.2165    0.0000 C   0  0  0  0  0  0  0  0  0  0  0  0
    5.1312    0.3881    0.0000 C   0  0  0  0  0  0  0  0  0  0  0  0
    5.5437   -0.3264    0.0000 C   0  0  0  0  0  0  0  0  0  0  0  0
    4.9916   -0.9395    0.0000 C   0  0  1  0  0  0  0  0  0  0  0  0
    5.1632   -1.7465    0.0000 C   0  0  0  0  0  0  0  0  0  0  0  0
    5.9478   -2.0014    0.0000 O   0  0  0  0  0  0  0  0  0  0  0  0
    4.5501   -2.2985    0.0000 O   0  0  0  0  0  0  0  0  0  0  0  0
    2.8090   -2.2539    0.0000 C   0  0  0  0  0  0  0  0  0  0  0  0
    2.0945   -1.8414    0.0000 C   0  0  0  0  0  0  0  0  0  0  0  0
    1.3801   -2.2539    0.0000 C   0  0  0  0  0  0  0  0  0  0  0  0
    2.0945   -1.0164    0.0000 C   0  0  0  0  0  0  0  0  0  0  0  0
    2.8090   -0.6039    0.0000 C   0  0  2  0  0  0  0  0  0  0  0  0
    2.8090    0.2211    0.0000 N   0  0  0  0  0  0  0  0  0  0  0  0
    3.5235   -1.0164    0.0000 C   0  0  0  0  0  0  0  0  0  0  0  0
    3.5235   -1.8414    0.0000 O   0  0  0  0  0  0  0  0  0  0  0  0
    1.3409    0.2980    0.0000 S   0  0  0  0  0  0  0  0  0  0  0  0
    0.7888    0.9111    0.0000 N   0  0  0  0  0  0  0  0  0  0  0  0
    1.2013    1.6256    0.0000 C   0  0  0  0  0  0  0  0  0  0  0  0
    2.0083    1.4540    0.0000 N   0  0  0  0  0  0  0  0  0  0  0  0
    2.0945    0.6336    0.0000 C   0  0  0  0  0  0  0  0  0  0  0  0
    0.8658    2.3792    0.0000 C   0  0  0  0  0  0  0  0  0  0  0  0
    0.0453    2.4655    0.0000 O   0  0  0  0  0  0  0  0  0  0  0  0
    1.3507    3.0467    0.0000 O   0  0  0  0  0  0  0  0  0  0  0  0
  1  2  1  0  0  0  0
  2  3  1  0  0  0  0
  3  4  1  0  0  0  0
  5  4  1  0  0  0  0
  5  1  1  0  0  0  0
  5  6  1  1  0  0  0
  6  7  1  0  0  0  0
  6  8  2  0  0  0  0
  9 10  1  0  0  0  0
 10 11  1  0  0  0  0
 10 12  1  0  0  0  0
 13 12  1  0  0  0  0
 13 14  1  6  0  0  0
 13 15  1  0  0  0  0
 15 16  2  0  0  0  0
 17 18  1  0  0  0  0
 18 19  2  0  0  0  0
 19 20  1  0  0  0  0
 20 21  2  0  0  0  0
 17 21  1  0  0  0  0
 22 23  1  0  0  0  0
 22 24  2  0  0  0  0
 19 22  1  0  0  0  0
 14 21  1  0  0  0  0
  1 15  1  0  0  0  0
M  END
>  <type>
systematic

$$$$
3-[[2-(6-Chloro-2-oxo-2H-1-benzopyran-3-yl)-2-oxoethyl]amino]benzoic acid
  Mrv2401 11012423232D          

 25 27  0  0  0  0            999 V2000
    5.7158   -1.6500    0.0000 C   0  0  0  0  0  0  0  0  0  0  0  0
    5.7158   -2.4750    0.0000 C   0  0  0  0  0  0  0  0  0  0  0  0
    6.4302   -2.8875    0.0000 O   0  0  0  0  0  0  0  0  0  0  0  0
    5.0013   -2.8875    0.0000 O   0  0  0  0  0  0  0  0  0  0  0  0
    5.0013   -1.2375    0.0000 C   0  0  0  0  0  0  0  0  0  0  0  0
    5.0013   -0.4125    0.0000 C   0  0  0  0  0  0  0  0  0  0  0  0
    5.7158   -0.0000    0.0000 C   0  0  0  0  0  0  0  0  0  0  0  0
    6.4302   -0.4125    0.0000 C   0  0  0  0  0  0  0  0  0  0  0  0
    6.4302   -1.2375    0.0000 C   0  0  0  0  0  0  0  0  0  0  0  0
    4.2868   -0.0000    0.0000 N   0  0  0  0  0  0  0  0  0  0  0  0
    3.5724   -0.4125    0.0000 C   0  0  0  0  0  0  0  0  0  0  0  0
    2.8579   -0.0000    0.0000 C   0  0  0  0  0  0  0  0  0  0  0  0
    2.8579    0.8250    0.0000 O   0  0  0  0  0  0  0  0  0  0  0  0
   -0.7145   -1.2375    0.0000 C   0  0  0  0  0  0  0  0  0  0  0  0
    0.0000   -1.6500    0.0000 C   0  0  0  0  0  0  0  0  0  0  0  0
    0.7145   -1.2375    0.0000 C   0  0  0  0  0  0  0  0  0  0  0  0
    0.7145   -0.4125    0.0000 C   0  0  0  0  0  0  0  0  0  0  0  0
    0.0000   -0.0000    0.0000 C   0  0  0  0  0  0  0  0  0  0  0  0
   -0.7145   -0.4125    0.0000 C   0  0  0  0  0  0  0  0  0  0  0  0
    1.4289   -0.0000    0.0000 C   0  0  0  0  0  0  0  0  0  0  0  0
    2.1434   -0.4125    0.0000 C   0  0  0  0  0  0  0  0  0  0  0  0
    2.1434   -1.2375    0.0000 C   0  0  0  0  0  0  0  0  0  0  0  0
    1.4289   -1.6500    0.0000 O   0  0  0  0  0  0  0  0  0  0  0  0
    2.8579   -1.6500    0.0000 O   0  0  0  0  0  0  0  0  0  0  0  0
   -1.4289   -0.0000    0.0000 Cl  0  0  0  0  0  0  0  0  0  0  0  0
  1  2  1  0  0  0  0
  2  3  1  0  0  0  0
  2  4  2  0  0  0  0
  1  5  2  0  0  0  0
  5  6  1  0  0  0  0
  6  7  2  0  0  0  0
  7  8  1  0  0  0  0
  8  9  2  0  0  0  0
  1  9  1  0  0  0  0
 11 12  1  0  0  0  0
 12 13  2  0  0  0  0
 14 15  1  0  0  0  0
 15 16  2  0  0  0  0
 16 17  1  0  0  0  0
 17 18  2  0  0  0  0
 18 19  1  0  0  0  0
 14 19  2  0  0  0  0
 17 20  1  0  0  0  0
 20 21  2  0  0  0  0
 21 22  1  0  0  0  0
 22 23  1  0  0  0  0
 16 23  1  0  0  0  0
 22 24  2  0  0  0  0
 19 25  1  0  0  0  0
 12 21  1  0  0  0  0
 10 11  1  0  0  0  0
  6 10  1  0  0  0  0
M  END
>  <type>
systematic

$$$$
7-[(2-Hydroxy-2-phenylacetyl)amino]-8-oxo-1-azabicyclo[4.2.0]oct-2-ene-2-carboxylic acid
  Mrv2401 11012423242D          

 23 25  0  0  0  0            999 V2000
    1.6905   -0.1510    0.0000 N   0  0  0  0  0  0  0  0  0  0  0  0
    2.4049    0.2615    0.0000 C   0  0  0  0  0  0  0  0  0  0  0  0
    3.1194   -0.1510    0.0000 C   0  0  0  0  0  0  0  0  0  0  0  0
    3.1194   -0.9760    0.0000 C   0  0  0  0  0  0  0  0  0  0  0  0
    2.4049   -1.3885    0.0000 C   0  0  0  0  0  0  0  0  0  0  0  0
    1.6905   -0.9760    0.0000 C   0  0  0  0  0  0  0  0  0  0  0  0
    0.8655   -0.9760    0.0000 C   0  0  0  0  0  0  0  0  0  0  0  0
    0.8655   -0.1510    0.0000 C   0  0  0  0  0  0  0  0  0  0  0  0
    2.4049    1.0865    0.0000 C   0  0  0  0  0  0  0  0  0  0  0  0
    3.1194    1.4990    0.0000 O   0  0  0  0  0  0  0  0  0  0  0  0
    1.6905    1.4990    0.0000 O   0  0  0  0  0  0  0  0  0  0  0  0
    0.2821    0.4324    0.0000 O   0  0  0  0  0  0  0  0  0  0  0  0
    0.2821   -1.5593    0.0000 N   0  0  0  0  0  0  0  0  0  0  0  0
   -0.5148   -1.3458    0.0000 C   0  0  0  0  0  0  0  0  0  0  0  0
   -0.7283   -0.5489    0.0000 O   0  0  0  0  0  0  0  0  0  0  0  0
   -1.0982   -1.9292    0.0000 C   0  0  0  0  0  0  0  0  0  0  0  0
   -1.8950   -1.7157    0.0000 C   0  0  0  0  0  0  0  0  0  0  0  0
   -2.4784   -2.2990    0.0000 C   0  0  0  0  0  0  0  0  0  0  0  0
   -3.2753   -2.0855    0.0000 C   0  0  0  0  0  0  0  0  0  0  0  0
   -3.4888   -1.2886    0.0000 C   0  0  0  0  0  0  0  0  0  0  0  0
   -2.9055   -0.7052    0.0000 C   0  0  0  0  0  0  0  0  0  0  0  0
   -2.1086   -0.9188    0.0000 C   0  0  0  0  0  0  0  0  0  0  0  0
   -0.8846   -2.7261    0.0000 O   0  0  0  0  0  0  0  0  0  0  0  0
  1  2  1  0  0  0  0
  2  3  2  0  0  0  0
  3  4  1  0  0  0  0
  4  5  1  0  0  0  0
  5  6  1  0  0  0  0
  1  6  1  0  0  0  0
  6  7  1  0  0  0  0
  7  8  1  0  0  0  0
  1  8  1  0  0  0  0
  9 10  1  0  0  0  0
  9 11  2  0  0  0  0
  2  9  1  0  0  0  0
  8 12  2  0  0  0  0
 14 15  2  0  0  0  0
 14 16  1  0  0  0  0
 17 18  2  0  0  0  0
 18 19  1  0  0  0  0
 19 20  2  0  0  0  0
 20 21  1  0  0  0  0
 21 22  2  0  0  0  0
 17 22  1  0  0  0  0
 16 17  1  0  0  0  0
 16 23  1  0  0  0  0
 13 14  1  0  0  0  0
  7 13  1  0  0  0  0
M  END
>  <type>
systematic

$$$$
9,10-Dihydro-9-oxo-4-acridinecarboxylic acid 2-(4-carboxyphenyl)hydrazide
  Mrv2401 11012423242D          

 28 31  0  0  0  0            999 V2000
    1.4289   -2.4750    0.0000 C   0  0  0  0  0  0  0  0  0  0  0  0
    1.4289   -1.6500    0.0000 C   0  0  0  0  0  0  0  0  0  0  0  0
    2.1434   -1.2375    0.0000 C   0  0  0  0  0  0  0  0  0  0  0  0
    2.8579   -1.6500    0.0000 C   0  0  0  0  0  0  0  0  0  0  0  0
    3.5724   -1.2375    0.0000 N   0  0  0  0  0  0  0  0  0  0  0  0
    4.2868   -1.6500    0.0000 C   0  0  0  0  0  0  0  0  0  0  0  0
    5.0013   -1.2375    0.0000 C   0  0  0  0  0  0  0  0  0  0  0  0
    5.7158   -1.6500    0.0000 C   0  0  0  0  0  0  0  0  0  0  0  0
    5.7158   -2.4750    0.0000 C   0  0  0  0  0  0  0  0  0  0  0  0
    5.0013   -2.8875    0.0000 C   0  0  0  0  0  0  0  0  0  0  0  0
    4.2868   -2.4750    0.0000 C   0  0  0  0  0  0  0  0  0  0  0  0
    3.5724   -2.8875    0.0000 C   0  0  0  0  0  0  0  0  0  0  0  0
    2.8579   -2.4750    0.0000 C   0  0  0  0  0  0  0  0  0  0  0  0
    2.1434   -2.8875    0.0000 C   0  0  0  0  0  0  0  0  0  0  0  0
    2.1434   -0.4125    0.0000 C   0  0  0  0  0  0  0  0  0  0  0  0
    1.4289    0.0000    0.0000 O   0  0  0  0  0  0  0  0  0  0  0  0
    2.8579    0.8250    0.0000 N   0  0  0  0  0  0  0  0  0  0  0  0
    2.8579    0.0000    0.0000 N   0  0  0  0  0  0  0  0  0  0  0  0
    3.5724    1.2375    0.0000 C   0  0  0  0  0  0  0  0  0  0  0  0
    3.5724    2.0625    0.0000 C   0  0  0  0  0  0  0  0  0  0  0  0
    4.2868    2.4750    0.0000 C   0  0  0  0  0  0  0  0  0  0  0  0
    5.0013    2.0625    0.0000 C   0  0  0  0  0  0  0  0  0  0  0  0
    5.0013    1.2375    0.0000 C   0  0  0  0  0  0  0  0  0  0  0  0
    4.2868    0.8250    0.0000 C   0  0  0  0  0  0  0  0  0  0  0  0
    5.7158    2.4750    0.0000 C   0  0  0  0  0  0  0  0  0  0  0  0
    5.7158    3.3000    0.0000 O   0  0  0  0  0  0  0  0  0  0  0  0
    6.4302    2.0625    0.0000 O   0  0  0  0  0  0  0  0  0  0  0  0
    3.5724   -3.7125    0.0000 O   0  0  0  0  0  0  0  0  0  0  0  0
  1  2  2  0  0  0  0
  2  3  1  0  0  0  0
  3  4  2  0  0  0  0
  4  5  1  0  0  0  0
  5  6  1  0  0  0  0
  6  7  2  0  0  0  0
  7  8  1  0  0  0  0
  8  9  2  0  0  0  0
  9 10  1  0  0  0  0
 10 11  2  0  0  0  0
  6 11  1  0  0  0  0
 11 12  1  0  0  0  0
 12 13  1  0  0  0  0
  4 13  1  0  0  0  0
 13 14  2  0  0  0  0
  1 14  1  0  0  0  0
 15 16  2  0  0  0  0
  3 15  1  0  0  0  0
 17 18  1  0  0  0  0
 19 20  2  0  0  0  0
 20 21  1  0  0  0  0
 21 22  2  0  0  0  0
 22 23  1  0  0  0  0
 23 24  2  0  0  0  0
 19 24  1  0  0  0  0
 25 26  1  0  0  0  0
 25 27  2  0  0  0  0
 22 25  1  0  0  0  0
 17 19  1  0  0  0  0
 15 18  1  0  0  0  0
 12 28  2  0  0  0  0
M  END
>  <type>
systematic

$$$$
4-Thia-1-azabicyclo[3.2.0]heptane-2-carboxylic acid, 6-[(hydroxyphenylacetyl)amino]-3,3-dimethyl-7-oxo-, [2 S-[2α,5α,6β(S*)]]-
  Mrv2401 11012423292D          

  0  0  0     0  0            999 V3000
M  V30 BEGIN CTAB
M  V30 COUNTS 24 26 0 0 1
M  V30 BEGIN ATOM
M  V30 1 N 3.3102 0.4645 0 0
M  V30 2 C 4.7748 0.9403 0 0 CFG=2
M  V30 3 C 5.68 -0.3055 0 0
M  V30 4 S 4.7748 -1.5514 0 0
M  V30 5 C 3.3102 -1.0755 0 0 CFG=1
M  V30 6 C 1.7702 -1.0755 0 0 CFG=2
M  V30 7 C 1.7702 0.4645 0 0
M  V30 8 C 5.2507 2.405 0 0
M  V30 9 O 6.757 2.7252 0 0
M  V30 10 O 4.2202 3.5494 0 0
M  V30 11 O 0.6812 1.5534 0 0
M  V30 12 C 7.0217 0.4505 0 0
M  V30 13 C 7.0217 -1.0615 0 0
M  V30 14 N 0.6812 -2.1645 0 0
M  V30 15 C -0.8063 -1.7659 0 0
M  V30 16 O -1.2049 -0.2784 0 0
M  V30 17 C -1.8952 -2.8548 0 0
M  V30 18 C -3.3828 -2.4563 0 0
M  V30 19 C -4.4717 -3.5452 0 0
M  V30 20 C -5.9592 -3.1466 0 0
M  V30 21 C -6.3578 -1.6591 0 0
M  V30 22 C -5.2689 -0.5702 0 0
M  V30 23 C -3.7814 -0.9687 0 0
M  V30 24 O -1.4967 -4.3424 0 0
M  V30 END ATOM
M  V30 BEGIN BOND
M  V30 1 1 2 1
M  V30 2 1 2 3
M  V30 3 1 3 4
M  V30 4 1 5 4
M  V30 5 1 5 1 CFG=1
M  V30 6 1 5 6
M  V30 7 1 6 7
M  V30 8 1 1 7
M  V30 9 1 8 9
M  V30 10 2 8 10
M  V30 11 1 2 8 CFG=1
M  V30 12 2 7 11
M  V30 13 1 3 12
M  V30 14 1 3 13
M  V30 15 2 15 16
M  V30 16 1 15 17
M  V30 17 2 18 19
M  V30 18 1 19 20
M  V30 19 2 20 21
M  V30 20 1 21 22
M  V30 21 2 22 23
M  V30 22 1 18 23
M  V30 23 1 17 18
M  V30 24 1 17 24
M  V30 25 1 14 15
M  V30 26 1 6 14 CFG=1
M  V30 END BOND
M  V30 BEGIN COLLECTION
M  V30 MDLV30/STEREL1 ATOMS=(1 6)
M  V30 END COLLECTION
M  V30 END CTAB
M  END
>  <type>
systematic

$$$$
5-Thia-1-azabicyclo[4.2.0]oct-2-ene-2-carboxylic acid, 7-[(hydroxyphenylacetyl)amino]-8-oxo-, [6 R-[6α,7β(R*)]]-
  Mrv2401 11012423292D          

  0  0  0     0  0            999 V3000
M  V30 BEGIN CTAB
M  V30 COUNTS 23 25 0 0 1
M  V30 BEGIN ATOM
M  V30 1 N 3.1555 -0.2818 0 0
M  V30 2 C 4.4892 0.4882 0 0
M  V30 3 C 5.8229 -0.2818 0 0
M  V30 4 C 5.8229 -1.8218 0 0
M  V30 5 S 4.4892 -2.5918 0 0
M  V30 6 C 3.1555 -1.8218 0 0 CFG=2
M  V30 7 C 1.6155 -1.8218 0 0 CFG=1
M  V30 8 C 1.6155 -0.2818 0 0
M  V30 9 C 4.4892 2.0282 0 0
M  V30 10 O 5.8229 2.7982 0 0
M  V30 11 O 3.1555 2.7982 0 0
M  V30 12 O 0.5266 0.8071 0 0
M  V30 13 N 0.5266 -2.9108 0 0
M  V30 14 C -0.961 -2.5122 0 0
M  V30 15 O -1.3595 -1.0247 0 0
M  V30 16 C -2.0499 -3.6011 0 0
M  V30 17 C -3.5374 -3.2026 0 0
M  V30 18 C -4.6264 -4.2915 0 0
M  V30 19 C -6.1139 -3.8929 0 0
M  V30 20 C -6.5125 -2.4054 0 0
M  V30 21 C -5.4235 -1.3165 0 0
M  V30 22 C -3.936 -1.715 0 0
M  V30 23 O -1.6513 -5.0887 0 0
M  V30 END ATOM
M  V30 BEGIN BOND
M  V30 1 1 1 2
M  V30 2 2 2 3
M  V30 3 1 3 4
M  V30 4 1 4 5
M  V30 5 1 6 5
M  V30 6 1 6 1 CFG=3
M  V30 7 1 6 7
M  V30 8 1 7 8
M  V30 9 1 1 8
M  V30 10 1 9 10
M  V30 11 2 9 11
M  V30 12 1 2 9
M  V30 13 2 8 12
M  V30 14 2 14 15
M  V30 15 1 14 16
M  V30 16 2 17 18
M  V30 17 1 18 19
M  V30 18 2 19 20
M  V30 19 1 20 21
M  V30 20 2 21 22
M  V30 21 1 17 22
M  V30 22 1 16 17
M  V30 23 1 16 23
M  V30 24 1 13 14
M  V30 25 1 7 13 CFG=3
M  V30 END BOND
M  V30 BEGIN COLLECTION
M  V30 MDLV30/STEREL1 ATOMS=(1 7)
M  V30 END COLLECTION
M  V30 END CTAB
M  END
>  <type>
systematic

$$$$
4-Thia-1-azabicyclo[3.2.0]heptane-2-carboxylic acid, 6-[[(2S)-hydroxyphenylacetyl]amino]-3,3-dimethyl-7-oxo-, (2S,5R,6R)-
  Mrv2401 11012423302D          

 24 26  0  0  1  0            999 V2000
    1.7733    0.2488    0.0000 N   0  0  0  0  0  0  0  0  0  0  0  0
    2.5579    0.5038    0.0000 C   0  0  2  0  0  0  0  0  0  0  0  0
    3.0428   -0.1637    0.0000 C   0  0  0  0  0  0  0  0  0  0  0  0
    2.5579   -0.8311    0.0000 S   0  0  0  0  0  0  0  0  0  0  0  0
    1.7733   -0.5762    0.0000 C   0  0  2  0  0  0  0  0  0  0  0  0
    0.9483   -0.5762    0.0000 C   0  0  1  0  0  0  0  0  0  0  0  0
    0.9483    0.2488    0.0000 C   0  0  0  0  0  0  0  0  0  0  0  0
    2.8129    1.2884    0.0000 C   0  0  0  0  0  0  0  0  0  0  0  0
    3.6198    1.4599    0.0000 O   0  0  0  0  0  0  0  0  0  0  0  0
    2.2608    1.9015    0.0000 O   0  0  0  0  0  0  0  0  0  0  0  0
    0.3649    0.8322    0.0000 O   0  0  0  0  0  0  0  0  0  0  0  0
    3.7616    0.2413    0.0000 C   0  0  0  0  0  0  0  0  0  0  0  0
    3.7616   -0.5687    0.0000 C   0  0  0  0  0  0  0  0  0  0  0  0
    0.3649   -1.1595    0.0000 N   0  0  0  0  0  0  0  0  0  0  0  0
   -0.4319   -0.9460    0.0000 C   0  0  0  0  0  0  0  0  0  0  0  0
   -0.6455   -0.1491    0.0000 O   0  0  0  0  0  0  0  0  0  0  0  0
   -1.0153   -1.5294    0.0000 C   0  0  2  0  0  0  0  0  0  0  0  0
   -1.8122   -1.3159    0.0000 C   0  0  0  0  0  0  0  0  0  0  0  0
   -2.3956   -1.8992    0.0000 C   0  0  0  0  0  0  0  0  0  0  0  0
   -3.1925   -1.6857    0.0000 C   0  0  0  0  0  0  0  0  0  0  0  0
   -3.4060   -0.8888    0.0000 C   0  0  0  0  0  0  0  0  0  0  0  0
   -2.8226   -0.3054    0.0000 C   0  0  0  0  0  0  0  0  0  0  0  0
   -2.0257   -0.5190    0.0000 C   0  0  0  0  0  0  0  0  0  0  0  0
   -0.8018   -2.3263    0.0000 O   0  0  0  0  0  0  0  0  0  0  0  0
  2  1  1  0  0  0  0
  2  3  1  0  0  0  0
  3  4  1  0  0  0  0
  5  4  1  0  0  0  0
  5  1  1  6  0  0  0
  5  6  1  0  0  0  0
  6  7  1  0  0  0  0
  1  7  1  0  0  0  0
  8  9  1  0  0  0  0
  8 10  2  0  0  0  0
  2  8  1  1  0  0  0
  7 11  2  0  0  0  0
  3 12  1  0  0  0  0
  3 13  1  0  0  0  0
 15 16  2  0  0  0  0
 17 15  1  0  0  0  0
 18 19  2  0  0  0  0
 19 20  1  0  0  0  0
 20 21  2  0  0  0  0
 21 22  1  0  0  0  0
 22 23  2  0  0  0  0
 18 23  1  0  0  0  0
 17 18  1  0  0  0  0
 17 24  1  1  0  0  0
 14 15  1  0  0  0  0
  6 14  1  6  0  0  0
M  END
>  <type>
systematic

$$$$
5-Oxa-1-azabicyclo[4.2.0]oct-2-ene-2-carboxylic acid, 7-[(hydroxyphenylacetyl)amino]-8-oxo-, [6 R-[6α,7β(R*)]]-
  Mrv2401 11012423312D          

  0  0  0     0  0            999 V3000
M  V30 BEGIN CTAB
M  V30 COUNTS 23 25 0 0 1
M  V30 BEGIN ATOM
M  V30 1 N 3.1555 -0.2818 0 0
M  V30 2 C 4.4892 0.4882 0 0
M  V30 3 C 5.8229 -0.2818 0 0
M  V30 4 C 5.8229 -1.8218 0 0
M  V30 5 O 4.4892 -2.5918 0 0
M  V30 6 C 3.1555 -1.8218 0 0 CFG=2
M  V30 7 C 1.6155 -1.8218 0 0 CFG=2
M  V30 8 C 1.6155 -0.2818 0 0
M  V30 9 C 4.4892 2.0282 0 0
M  V30 10 O 5.8229 2.7982 0 0
M  V30 11 O 3.1555 2.7982 0 0
M  V30 12 O 0.5266 0.8071 0 0
M  V30 13 N 0.5266 -2.9108 0 0
M  V30 14 C -0.961 -2.5122 0 0
M  V30 15 O -1.3595 -1.0247 0 0
M  V30 16 C -2.0499 -3.6011 0 0
M  V30 17 C -3.5374 -3.2026 0 0
M  V30 18 C -4.6264 -4.2915 0 0
M  V30 19 C -6.1139 -3.8929 0 0
M  V30 20 C -6.5125 -2.4054 0 0
M  V30 21 C -5.4235 -1.3165 0 0
M  V30 22 C -3.936 -1.715 0 0
M  V30 23 O -1.6513 -5.0887 0 0
M  V30 END ATOM
M  V30 BEGIN BOND
M  V30 1 1 1 2
M  V30 2 2 2 3
M  V30 3 1 3 4
M  V30 4 1 4 5
M  V30 5 1 6 5
M  V30 6 1 6 1 CFG=3
M  V30 7 1 6 7
M  V30 8 1 7 8
M  V30 9 1 1 8
M  V30 10 1 9 10
M  V30 11 2 9 11
M  V30 12 1 2 9
M  V30 13 2 8 12
M  V30 14 2 14 15
M  V30 15 1 14 16
M  V30 16 2 17 18
M  V30 17 1 18 19
M  V30 18 2 19 20
M  V30 19 1 20 21
M  V30 20 2 21 22
M  V30 21 1 17 22
M  V30 22 1 16 17
M  V30 23 1 16 23
M  V30 24 1 13 14
M  V30 25 1 7 13 CFG=1
M  V30 END BOND
M  V30 BEGIN COLLECTION
M  V30 MDLV30/STEREL1 ATOMS=(1 7)
M  V30 END COLLECTION
M  V30 END CTAB
M  END
>  <type>
systematic

$$$$
7-[(2-Hydroxy-2-phenylacetyl)amino]-8-oxo-5-oxa-1-azabicyclo[4.2.0]oct-2-ene-2-carboxylic acid
  Mrv2401 11012423322D          

 23 25  0  0  0  0            999 V2000
    1.6905   -0.1510    0.0000 N   0  0  0  0  0  0  0  0  0  0  0  0
    2.4049    0.2615    0.0000 C   0  0  0  0  0  0  0  0  0  0  0  0
    3.1194   -0.1510    0.0000 C   0  0  0  0  0  0  0  0  0  0  0  0
    3.1194   -0.9760    0.0000 C   0  0  0  0  0  0  0  0  0  0  0  0
    2.4049   -1.3885    0.0000 O   0  0  0  0  0  0  0  0  0  0  0  0
    1.6905   -0.9760    0.0000 C   0  0  0  0  0  0  0  0  0  0  0  0
    0.8655   -0.9760    0.0000 C   0  0  0  0  0  0  0  0  0  0  0  0
    0.8655   -0.1510    0.0000 C   0  0  0  0  0  0  0  0  0  0  0  0
    2.4049    1.0865    0.0000 C   0  0  0  0  0  0  0  0  0  0  0  0
    3.1194    1.4990    0.0000 O   0  0  0  0  0  0  0  0  0  0  0  0
    1.6905    1.4990    0.0000 O   0  0  0  0  0  0  0  0  0  0  0  0
    0.2821    0.4324    0.0000 O   0  0  0  0  0  0  0  0  0  0  0  0
    0.2821   -1.5593    0.0000 N   0  0  0  0  0  0  0  0  0  0  0  0
   -0.5148   -1.3458    0.0000 C   0  0  0  0  0  0  0  0  0  0  0  0
   -0.7283   -0.5489    0.0000 O   0  0  0  0  0  0  0  0  0  0  0  0
   -1.0982   -1.9292    0.0000 C   0  0  0  0  0  0  0  0  0  0  0  0
   -1.8950   -1.7157    0.0000 C   0  0  0  0  0  0  0  0  0  0  0  0
   -2.4784   -2.2990    0.0000 C   0  0  0  0  0  0  0  0  0  0  0  0
   -3.2753   -2.0855    0.0000 C   0  0  0  0  0  0  0  0  0  0  0  0
   -3.4888   -1.2886    0.0000 C   0  0  0  0  0  0  0  0  0  0  0  0
   -2.9055   -0.7052    0.0000 C   0  0  0  0  0  0  0  0  0  0  0  0
   -2.1086   -0.9188    0.0000 C   0  0  0  0  0  0  0  0  0  0  0  0
   -0.8846   -2.7261    0.0000 O   0  0  0  0  0  0  0  0  0  0  0  0
  1  2  1  0  0  0  0
  2  3  2  0  0  0  0
  3  4  1  0  0  0  0
  4  5  1  0  0  0  0
  5  6  1  0  0  0  0
  1  6  1  0  0  0  0
  6  7  1  0  0  0  0
  7  8  1  0  0  0  0
  1  8  1  0  0  0  0
  9 10  1  0  0  0  0
  9 11  2  0  0  0  0
  2  9  1  0  0  0  0
  8 12  2  0  0  0  0
 14 15  2  0  0  0  0
 14 16  1  0  0  0  0
 17 18  2  0  0  0  0
 18 19  1  0  0  0  0
 19 20  2  0  0  0  0
 20 21  1  0  0  0  0
 21 22  2  0  0  0  0
 17 22  1  0  0  0  0
 16 17  1  0  0  0  0
 16 23  1  0  0  0  0
 13 14  1  0  0  0  0
  7 13  1  0  0  0  0
M  END
>  <type>
systematic

$$$$
4-Thia-1-azabicyclo[3.2.0]heptane-2-carboxylic acid, 6-[(hydroxyphenylacetyl)amino]-3,3-dimethyl-7-oxo-, [2 S-(2α,5α,6α)]-
  Mrv2401 11012423342D          

 24 26  0  0  1  0            999 V2000
    1.7733    0.2488    0.0000 N   0  0  0  0  0  0  0  0  0  0  0  0
    2.5579    0.5038    0.0000 C   0  0  2  0  0  0  0  0  0  0  0  0
    3.0428   -0.1637    0.0000 C   0  0  0  0  0  0  0  0  0  0  0  0
    2.5579   -0.8311    0.0000 S   0  0  0  0  0  0  0  0  0  0  0  0
    1.7733   -0.5762    0.0000 C   0  0  1  0  0  0  0  0  0  0  0  0
    0.9483   -0.5762    0.0000 C   0  0  1  0  0  0  0  0  0  0  0  0
    0.9483    0.2488    0.0000 C   0  0  0  0  0  0  0  0  0  0  0  0
    2.8129    1.2884    0.0000 C   0  0  0  0  0  0  0  0  0  0  0  0
    3.6198    1.4599    0.0000 O   0  0  0  0  0  0  0  0  0  0  0  0
    2.2608    1.9015    0.0000 O   0  0  0  0  0  0  0  0  0  0  0  0
    0.3649    0.8322    0.0000 O   0  0  0  0  0  0  0  0  0  0  0  0
    3.7616    0.2413    0.0000 C   0  0  0  0  0  0  0  0  0  0  0  0
    3.7616   -0.5687    0.0000 C   0  0  0  0  0  0  0  0  0  0  0  0
    0.3649   -1.1595    0.0000 N   0  0  0  0  0  0  0  0  0  0  0  0
   -0.4319   -0.9460    0.0000 C   0  0  0  0  0  0  0  0  0  0  0  0
   -0.6455   -0.1491    0.0000 O   0  0  0  0  0  0  0  0  0  0  0  0
   -1.0153   -1.5294    0.0000 C   0  0  0  0  0  0  0  0  0  0  0  0
   -1.8122   -1.3159    0.0000 C   0  0  0  0  0  0  0  0  0  0  0  0
   -2.3956   -1.8992    0.0000 C   0  0  0  0  0  0  0  0  0  0  0  0
   -3.1925   -1.6857    0.0000 C   0  0  0  0  0  0  0  0  0  0  0  0
   -3.4060   -0.8888    0.0000 C   0  0  0  0  0  0  0  0  0  0  0  0
   -2.8226   -0.3054    0.0000 C   0  0  0  0  0  0  0  0  0  0  0  0
   -2.0257   -0.5190    0.0000 C   0  0  0  0  0  0  0  0  0  0  0  0
   -0.8018   -2.3263    0.0000 O   0  0  0  0  0  0  0  0  0  0  0  0
  2  1  1  0  0  0  0
  2  3  1  0  0  0  0
  3  4  1  0  0  0  0
  5  4  1  0  0  0  0
  5  1  1  1  0  0  0
  5  6  1  0  0  0  0
  6  7  1  0  0  0  0
  1  7  1  0  0  0  0
  8  9  1  0  0  0  0
  8 10  2  0  0  0  0
  2  8  1  1  0  0  0
  7 11  2  0  0  0  0
  3 12  1  0  0  0  0
  3 13  1  0  0  0  0
 15 16  2  0  0  0  0
 15 17  1  0  0  0  0
 18 19  2  0  0  0  0
 19 20  1  0  0  0  0
 20 21  2  0  0  0  0
 21 22  1  0  0  0  0
 22 23  2  0  0  0  0
 18 23  1  0  0  0  0
 17 18  1  0  0  0  0
 17 24  1  0  0  0  0
 14 15  1  0  0  0  0
  6 14  1  6  0  0  0
M  END
>  <type>
systematic

$$$$
1,2-Pyrrolidinedicarboxylic acid, 4-mercapto-, 1-(1,1-dimethylethyl) ester, 2-[2-(3-carboxyphenyl)hydrazide], (2S,4S)-
  Mrv2401 11012423352D          

 27 28  0  0  1  0            999 V2000
    4.1801   -4.1866    0.0000 N   0  0  0  0  0  0  0  0  0  0  0  0
    4.8476   -4.6715    0.0000 C   0  0  1  0  0  0  0  0  0  0  0  0
    4.5926   -5.4562    0.0000 C   0  0  0  0  0  0  0  0  0  0  0  0
    3.7676   -5.4562    0.0000 C   0  0  1  0  0  0  0  0  0  0  0  0
    3.5127   -4.6715    0.0000 C   0  0  0  0  0  0  0  0  0  0  0  0
    4.1801   -3.3616    0.0000 C   0  0  0  0  0  0  0  0  0  0  0  0
    3.4656   -2.9491    0.0000 O   0  0  0  0  0  0  0  0  0  0  0  0
    4.8946   -2.9491    0.0000 O   0  0  0  0  0  0  0  0  0  0  0  0
    5.6322   -4.4166    0.0000 C   0  0  0  0  0  0  0  0  0  0  0  0
    6.2453   -4.9686    0.0000 O   0  0  0  0  0  0  0  0  0  0  0  0
    5.8037   -3.6096    0.0000 O   0  0  0  0  0  0  0  0  0  0  0  0
    3.2827   -6.1236    0.0000 S   0  0  0  0  0  0  0  0  0  0  0  0
    7.0299   -4.7137    0.0000 C   0  0  0  0  0  0  0  0  0  0  0  0
    7.8145   -4.4587    0.0000 C   0  0  0  0  0  0  0  0  0  0  0  0
    7.2848   -5.4983    0.0000 C   0  0  0  0  0  0  0  0  0  0  0  0
    6.7750   -3.9291    0.0000 C   0  0  0  0  0  0  0  0  0  0  0  0
    9.2122   -4.7558    0.0000 N   0  0  0  0  0  0  0  0  0  0  0  0
    8.4276   -5.0108    0.0000 N   0  0  0  0  0  0  0  0  0  0  0  0
    9.8253   -5.3079    0.0000 C   0  0  0  0  0  0  0  0  0  0  0  0
   10.6100   -5.0529    0.0000 C   0  0  0  0  0  0  0  0  0  0  0  0
   11.2230   -5.6050    0.0000 C   0  0  0  0  0  0  0  0  0  0  0  0
   11.0515   -6.4119    0.0000 C   0  0  0  0  0  0  0  0  0  0  0  0
   10.2669   -6.6669    0.0000 C   0  0  0  0  0  0  0  0  0  0  0  0
    9.6538   -6.1148    0.0000 C   0  0  0  0  0  0  0  0  0  0  0  0
   12.0077   -5.3500    0.0000 C   0  0  0  0  0  0  0  0  0  0  0  0
   12.1792   -4.5431    0.0000 O   0  0  0  0  0  0  0  0  0  0  0  0
   12.6208   -5.9021    0.0000 O   0  0  0  0  0  0  0  0  0  0  0  0
  2  1  1  0  0  0  0
  2  3  1  0  0  0  0
  4  3  1  0  0  0  0
  4  5  1  0  0  0  0
  1  5  1  0  0  0  0
  6  7  1  0  0  0  0
  6  8  2  0  0  0  0
  1  6  1  0  0  0  0
  9 10  1  0  0  0  0
  9 11  2  0  0  0  0
  2  9  1  6  0  0  0
  4 12  1  6  0  0  0
 13 14  1  0  0  0  0
 13 15  1  0  0  0  0
 13 16  1  0  0  0  0
 17 18  1  0  0  0  0
 19 20  2  0  0  0  0
 20 21  1  0  0  0  0
 21 22  2  0  0  0  0
 22 23  1  0  0  0  0
 23 24  2  0  0  0  0
 19 24  1  0  0  0  0
 25 26  1  0  0  0  0
 25 27  2  0  0  0  0
 21 25  1  0  0  0  0
 17 19  1  0  0  0  0
 14 18  1  0  0  0  0
 10 13  1  0  0  0  0
M  END
>  <type>
systematic

$$$$
2-[[2-(5-Benzoyl-1H-benzotriazol-1-yl)-2-oxoethyl]amino]benzoic acid
  Mrv2401 11012423372D          

 30 33  0  0  0  0            999 V2000
   -1.1633   -4.5039    0.0000 C   0  0  0  0  0  0  0  0  0  0  0  0
   -1.9702   -4.6754    0.0000 C   0  0  0  0  0  0  0  0  0  0  0  0
   -2.2252   -5.4600    0.0000 O   0  0  0  0  0  0  0  0  0  0  0  0
   -2.5223   -4.0623    0.0000 O   0  0  0  0  0  0  0  0  0  0  0  0
   -0.9083   -3.7192    0.0000 C   0  0  0  0  0  0  0  0  0  0  0  0
   -0.1014   -3.5477    0.0000 C   0  0  0  0  0  0  0  0  0  0  0  0
    0.4507   -4.1608    0.0000 C   0  0  0  0  0  0  0  0  0  0  0  0
    0.1957   -4.9454    0.0000 C   0  0  0  0  0  0  0  0  0  0  0  0
   -0.6112   -5.1170    0.0000 C   0  0  0  0  0  0  0  0  0  0  0  0
   -1.4604   -3.1062    0.0000 N   0  0  0  0  0  0  0  0  0  0  0  0
   -1.2054   -2.3215    0.0000 C   0  0  0  0  0  0  0  0  0  0  0  0
   -0.3984   -2.1500    0.0000 C   0  0  0  0  0  0  0  0  0  0  0  0
    0.1536   -2.7631    0.0000 O   0  0  0  0  0  0  0  0  0  0  0  0
    0.6411   -1.1104    0.0000 C   0  0  0  0  0  0  0  0  0  0  0  0
   -0.1435   -1.3654    0.0000 N   0  0  0  0  0  0  0  0  0  0  0  0
   -0.6284   -0.6979    0.0000 N   0  0  0  0  0  0  0  0  0  0  0  0
   -0.1435   -0.0305    0.0000 N   0  0  0  0  0  0  0  0  0  0  0  0
    0.6411   -0.2854    0.0000 C   0  0  0  0  0  0  0  0  0  0  0  0
    1.3556    0.1271    0.0000 C   0  0  0  0  0  0  0  0  0  0  0  0
    2.0701   -0.2854    0.0000 C   0  0  0  0  0  0  0  0  0  0  0  0
    2.0701   -1.1104    0.0000 C   0  0  0  0  0  0  0  0  0  0  0  0
    1.3556   -1.5229    0.0000 C   0  0  0  0  0  0  0  0  0  0  0  0
    2.7845    0.1271    0.0000 C   0  0  0  0  0  0  0  0  0  0  0  0
    2.7845    0.9521    0.0000 O   0  0  0  0  0  0  0  0  0  0  0  0
    3.4990   -0.2854    0.0000 C   0  0  0  0  0  0  0  0  0  0  0  0
    4.2135    0.1271    0.0000 C   0  0  0  0  0  0  0  0  0  0  0  0
    4.9279   -0.2854    0.0000 C   0  0  0  0  0  0  0  0  0  0  0  0
    4.9279   -1.1104    0.0000 C   0  0  0  0  0  0  0  0  0  0  0  0
    4.2135   -1.5229    0.0000 C   0  0  0  0  0  0  0  0  0  0  0  0
    3.4990   -1.1104    0.0000 C   0  0  0  0  0  0  0  0  0  0  0  0
  1  2  1  0  0  0  0
  2  3  1  0  0  0  0
  2  4  2  0  0  0  0
  1  5  2  0  0  0  0
  5  6  1  0  0  0  0
  6  7  2  0  0  0  0
  7  8  1  0  0  0  0
  8  9  2  0  0  0  0
  1  9  1  0  0  0  0
 11 12  1  0  0  0  0
 12 13  2  0  0  0  0
 14 15  1  0  0  0  0
 15 16  1  0  0  0  0
 16 17  2  0  0  0  0
 17 18  1  0  0  0  0
 14 18  2  0  0  0  0
 18 19  1  0  0  0  0
 19 20  2  0  0  0  0
 20 21  1  0  0  0  0
 21 22  2  0  0  0  0
 14 22  1  0  0  0  0
 23 24  2  0  0  0  0
 23 25  1  0  0  0  0
 25 26  2  0  0  0  0
 26 27  1  0  0  0  0
 27 28  2  0  0  0  0
 28 29  1  0  0  0  0
 29 30  2  0  0  0  0
 25 30  1  0  0  0  0
 20 23  1  0  0  0  0
 12 15  1  0  0  0  0
 10 11  1  0  0  0  0
  5 10  1  0  0  0  0
M  END
>  <type>
systematic

$$$$
4-[[2-(2,3-Dihydro-1,5-dimethyl-3-oxo-2-phenyl-1H-pyrazol-4-yl)-2-oxoethyl]amino]benzoic acid
  Mrv2401 11012423372D          

 27 29  0  0  0  0            999 V2000
   -3.9498   -3.4970    0.0000 C   0  0  0  0  0  0  0  0  0  0  0  0
   -4.7703   -3.4107    0.0000 C   0  0  0  0  0  0  0  0  0  0  0  0
   -5.2552   -4.0782    0.0000 O   0  0  0  0  0  0  0  0  0  0  0  0
   -5.1058   -2.6571    0.0000 O   0  0  0  0  0  0  0  0  0  0  0  0
   -3.4649   -2.8295    0.0000 C   0  0  0  0  0  0  0  0  0  0  0  0
   -2.6444   -2.9158    0.0000 C   0  0  0  0  0  0  0  0  0  0  0  0
   -2.3088   -3.6695    0.0000 C   0  0  0  0  0  0  0  0  0  0  0  0
   -2.7938   -4.3369    0.0000 C   0  0  0  0  0  0  0  0  0  0  0  0
   -3.6142   -4.2507    0.0000 C   0  0  0  0  0  0  0  0  0  0  0  0
   -1.4884   -3.7557    0.0000 N   0  0  0  0  0  0  0  0  0  0  0  0
   -1.0034   -3.0882    0.0000 C   0  0  0  0  0  0  0  0  0  0  0  0
   -0.1830   -3.1745    0.0000 C   0  0  0  0  0  0  0  0  0  0  0  0
    0.1526   -3.9282    0.0000 O   0  0  0  0  0  0  0  0  0  0  0  0
    0.7145   -1.2375    0.0000 N   0  0  0  0  0  0  0  0  0  0  0  0
    1.3819   -1.7224    0.0000 N   0  0  0  0  0  0  0  0  0  0  0  0
    1.1270   -2.5070    0.0000 C   0  0  0  0  0  0  0  0  0  0  0  0
    0.3020   -2.5070    0.0000 C   0  0  0  0  0  0  0  0  0  0  0  0
    0.0470   -1.7224    0.0000 C   0  0  0  0  0  0  0  0  0  0  0  0
    2.1665   -1.4675    0.0000 C   0  0  0  0  0  0  0  0  0  0  0  0
    2.3381   -0.6605    0.0000 C   0  0  0  0  0  0  0  0  0  0  0  0
    3.1227   -0.4056    0.0000 C   0  0  0  0  0  0  0  0  0  0  0  0
    3.7358   -0.9576    0.0000 C   0  0  0  0  0  0  0  0  0  0  0  0
    3.5642   -1.7646    0.0000 C   0  0  0  0  0  0  0  0  0  0  0  0
    2.7796   -2.0195    0.0000 C   0  0  0  0  0  0  0  0  0  0  0  0
    1.6119   -3.1745    0.0000 O   0  0  0  0  0  0  0  0  0  0  0  0
    0.7145   -0.4125    0.0000 C   0  0  0  0  0  0  0  0  0  0  0  0
   -0.7376   -1.4675    0.0000 C   0  0  0  0  0  0  0  0  0  0  0  0
  1  2  1  0  0  0  0
  2  3  1  0  0  0  0
  2  4  2  0  0  0  0
  1  5  2  0  0  0  0
  5  6  1  0  0  0  0
  6  7  2  0  0  0  0
  7  8  1  0  0  0  0
  8  9  2  0  0  0  0
  1  9  1  0  0  0  0
 11 12  1  0  0  0  0
 12 13  2  0  0  0  0
 14 15  1  0  0  0  0
 15 16  1  0  0  0  0
 16 17  1  0  0  0  0
 17 18  2  0  0  0  0
 14 18  1  0  0  0  0
 19 20  2  0  0  0  0
 20 21  1  0  0  0  0
 21 22  2  0  0  0  0
 22 23  1  0  0  0  0
 23 24  2  0  0  0  0
 19 24  1  0  0  0  0
 15 19  1  0  0  0  0
 16 25  2  0  0  0  0
 14 26  1  0  0  0  0
 18 27  1  0  0  0  0
 12 17  1  0  0  0  0
 10 11  1  0  0  0  0
  7 10  1  0  0  0  0
M  END
>  <type>
systematic

$$$$
9,10-Dihydro-9-oxo-4-acridinecarboxylic acid 2-(3-carboxyphenyl)hydrazide
  Mrv2401 11012423382D          

 28 31  0  0  0  0            999 V2000
    1.4289   -2.4750    0.0000 C   0  0  0  0  0  0  0  0  0  0  0  0
    1.4289   -1.6500    0.0000 C   0  0  0  0  0  0  0  0  0  0  0  0
    2.1434   -1.2375    0.0000 C   0  0  0  0  0  0  0  0  0  0  0  0
    2.8579   -1.6500    0.0000 C   0  0  0  0  0  0  0  0  0  0  0  0
    3.5724   -1.2375    0.0000 N   0  0  0  0  0  0  0  0  0  0  0  0
    4.2868   -1.6500    0.0000 C   0  0  0  0  0  0  0  0  0  0  0  0
    5.0013   -1.2375    0.0000 C   0  0  0  0  0  0  0  0  0  0  0  0
    5.7158   -1.6500    0.0000 C   0  0  0  0  0  0  0  0  0  0  0  0
    5.7158   -2.4750    0.0000 C   0  0  0  0  0  0  0  0  0  0  0  0
    5.0013   -2.8875    0.0000 C   0  0  0  0  0  0  0  0  0  0  0  0
    4.2868   -2.4750    0.0000 C   0  0  0  0  0  0  0  0  0  0  0  0
    3.5724   -2.8875    0.0000 C   0  0  0  0  0  0  0  0  0  0  0  0
    2.8579   -2.4750    0.0000 C   0  0  0  0  0  0  0  0  0  0  0  0
    2.1434   -2.8875    0.0000 C   0  0  0  0  0  0  0  0  0  0  0  0
    2.1434   -0.4125    0.0000 C   0  0  0  0  0  0  0  0  0  0  0  0
    1.4289    0.0000    0.0000 O   0  0  0  0  0  0  0  0  0  0  0  0
    2.8579    0.8250    0.0000 N   0  0  0  0  0  0  0  0  0  0  0  0
    2.8579    0.0000    0.0000 N   0  0  0  0  0  0  0  0  0  0  0  0
    3.5724    1.2375    0.0000 C   0  0  0  0  0  0  0  0  0  0  0  0
    3.5724    2.0625    0.0000 C   0  0  0  0  0  0  0  0  0  0  0  0
    4.2868    2.4750    0.0000 C   0  0  0  0  0  0  0  0  0  0  0  0
    5.0013    2.0625    0.0000 C   0  0  0  0  0  0  0  0  0  0  0  0
    5.0013    1.2375    0.0000 C   0  0  0  0  0  0  0  0  0  0  0  0
    4.2868    0.8250    0.0000 C   0  0  0  0  0  0  0  0  0  0  0  0
    4.2868    3.3000    0.0000 C   0  0  0  0  0  0  0  0  0  0  0  0
    3.5724    3.7125    0.0000 O   0  0  0  0  0  0  0  0  0  0  0  0
    5.0013    3.7125    0.0000 O   0  0  0  0  0  0  0  0  0  0  0  0
    3.5724   -3.7125    0.0000 O   0  0  0  0  0  0  0  0  0  0  0  0
  1  2  2  0  0  0  0
  2  3  1  0  0  0  0
  3  4  2  0  0  0  0
  4  5  1  0  0  0  0
  5  6  1  0  0  0  0
  6  7  2  0  0  0  0
  7  8  1  0  0  0  0
  8  9  2  0  0  0  0
  9 10  1  0  0  0  0
 10 11  2  0  0  0  0
  6 11  1  0  0  0  0
 11 12  1  0  0  0  0
 12 13  1  0  0  0  0
  4 13  1  0  0  0  0
 13 14  2  0  0  0  0
  1 14  1  0  0  0  0
 15 16  2  0  0  0  0
  3 15  1  0  0  0  0
 17 18  1  0  0  0  0
 19 20  2  0  0  0  0
 20 21  1  0  0  0  0
 21 22  2  0  0  0  0
 22 23  1  0  0  0  0
 23 24  2  0  0  0  0
 19 24  1  0  0  0  0
 25 26  1  0  0  0  0
 25 27  2  0  0  0  0
 21 25  1  0  0  0  0
 17 19  1  0  0  0  0
 15 18  1  0  0  0  0
 12 28  2  0  0  0  0
M  END
>  <type>
systematic

$$$$
2,3-Dihydro-3-[2-(4-methylbenzoyl)hydrazinylidene]-2-oxo-1H-indole-6-carboxylic acid
  Mrv2401 11012423392D          

 24 26  0  0  0  0            999 V2000
    0.6538   -0.6979    0.0000 C   0  0  0  0  0  0  0  0  0  0  0  0
    1.1387   -0.0305    0.0000 C   0  0  0  0  0  0  0  0  0  0  0  0
    1.9233   -0.2854    0.0000 C   0  0  0  0  0  0  0  0  0  0  0  0
    2.6378    0.1271    0.0000 C   0  0  0  0  0  0  0  0  0  0  0  0
    3.3523   -0.2854    0.0000 C   0  0  0  0  0  0  0  0  0  0  0  0
    3.3523   -1.1104    0.0000 C   0  0  0  0  0  0  0  0  0  0  0  0
    2.6378   -1.5229    0.0000 C   0  0  0  0  0  0  0  0  0  0  0  0
    1.9233   -1.1104    0.0000 C   0  0  0  0  0  0  0  0  0  0  0  0
    1.1387   -1.3654    0.0000 N   0  0  0  0  0  0  0  0  0  0  0  0
    4.0668   -1.5229    0.0000 C   0  0  0  0  0  0  0  0  0  0  0  0
    4.0668   -2.3479    0.0000 O   0  0  0  0  0  0  0  0  0  0  0  0
    4.7812   -1.1104    0.0000 O   0  0  0  0  0  0  0  0  0  0  0  0
   -0.1712   -0.6979    0.0000 O   0  0  0  0  0  0  0  0  0  0  0  0
    0.8838    0.7541    0.0000 N   0  0  0  0  0  0  0  0  0  0  0  0
    0.0768    0.9256    0.0000 N   0  0  0  0  0  0  0  0  0  0  0  0
   -0.1781    1.7103    0.0000 C   0  0  0  0  0  0  0  0  0  0  0  0
    0.3739    2.3234    0.0000 O   0  0  0  0  0  0  0  0  0  0  0  0
   -0.9851    1.8818    0.0000 C   0  0  0  0  0  0  0  0  0  0  0  0
   -1.5371    1.2687    0.0000 C   0  0  0  0  0  0  0  0  0  0  0  0
   -2.3441    1.4402    0.0000 C   0  0  0  0  0  0  0  0  0  0  0  0
   -2.5990    2.2248    0.0000 C   0  0  0  0  0  0  0  0  0  0  0  0
   -2.0470    2.8379    0.0000 C   0  0  0  0  0  0  0  0  0  0  0  0
   -1.2400    2.6664    0.0000 C   0  0  0  0  0  0  0  0  0  0  0  0
   -3.4060    2.3964    0.0000 C   0  0  0  0  0  0  0  0  0  0  0  0
  1  2  1  0  0  0  0
  2  3  1  0  0  0  0
  3  4  2  0  0  0  0
  4  5  1  0  0  0  0
  5  6  2  0  0  0  0
  6  7  1  0  0  0  0
  7  8  2  0  0  0  0
  3  8  1  0  0  0  0
  8  9  1  0  0  0  0
  1  9  1  0  0  0  0
 10 11  1  0  0  0  0
 10 12  2  0  0  0  0
  6 10  1  0  0  0  0
  1 13  2  0  0  0  0
 14 15  1  4  0  0  0
 16 17  2  0  0  0  0
 16 18  1  0  0  0  0
 18 19  2  0  0  0  0
 19 20  1  0  0  0  0
 20 21  2  0  0  0  0
 21 22  1  0  0  0  0
 22 23  2  0  0  0  0
 18 23  1  0  0  0  0
 21 24  1  0  0  0  0
 15 16  1  0  0  0  0
  2 14  2  0  0  0  0
M  END
>  <type>
systematic

$$$$
3-[[2-[8-Methoxy-2-oxo-6-(2-propen-1-yl)-2H-1-benzopyran-3-yl]-2-oxoethyl]amino]benzoic acid
  Mrv2401 11012423402D          

 29 31  0  0  0  0            999 V2000
    5.7158   -1.6500    0.0000 C   0  0  0  0  0  0  0  0  0  0  0  0
    5.7158   -2.4750    0.0000 C   0  0  0  0  0  0  0  0  0  0  0  0
    6.4302   -2.8875    0.0000 O   0  0  0  0  0  0  0  0  0  0  0  0
    5.0013   -2.8875    0.0000 O   0  0  0  0  0  0  0  0  0  0  0  0
    5.0013   -1.2375    0.0000 C   0  0  0  0  0  0  0  0  0  0  0  0
    5.0013   -0.4125    0.0000 C   0  0  0  0  0  0  0  0  0  0  0  0
    5.7158   -0.0000    0.0000 C   0  0  0  0  0  0  0  0  0  0  0  0
    6.4302   -0.4125    0.0000 C   0  0  0  0  0  0  0  0  0  0  0  0
    6.4302   -1.2375    0.0000 C   0  0  0  0  0  0  0  0  0  0  0  0
    4.2868   -0.0000    0.0000 N   0  0  0  0  0  0  0  0  0  0  0  0
    3.5724   -0.4125    0.0000 C   0  0  0  0  0  0  0  0  0  0  0  0
    2.8579   -0.0000    0.0000 C   0  0  0  0  0  0  0  0  0  0  0  0
    2.8579    0.8250    0.0000 O   0  0  0  0  0  0  0  0  0  0  0  0
   -0.7145   -1.2375    0.0000 C   0  0  0  0  0  0  0  0  0  0  0  0
    0.0000   -1.6500    0.0000 C   0  0  0  0  0  0  0  0  0  0  0  0
    0.7145   -1.2375    0.0000 C   0  0  0  0  0  0  0  0  0  0  0  0
    0.7145   -0.4125    0.0000 C   0  0  0  0  0  0  0  0  0  0  0  0
    0.0000   -0.0000    0.0000 C   0  0  0  0  0  0  0  0  0  0  0  0
   -0.7145   -0.4125    0.0000 C   0  0  0  0  0  0  0  0  0  0  0  0
    1.4289   -0.0000    0.0000 C   0  0  0  0  0  0  0  0  0  0  0  0
    2.1434   -0.4125    0.0000 C   0  0  0  0  0  0  0  0  0  0  0  0
    2.1434   -1.2375    0.0000 C   0  0  0  0  0  0  0  0  0  0  0  0
    1.4289   -1.6500    0.0000 O   0  0  0  0  0  0  0  0  0  0  0  0
   -1.4289   -0.0000    0.0000 C   0  0  0  0  0  0  0  0  0  0  0  0
   -1.4289    0.8250    0.0000 C   0  0  0  0  0  0  0  0  0  0  0  0
   -2.1434    1.2375    0.0000 C   0  0  0  0  0  0  0  0  0  0  0  0
    2.8579   -1.6500    0.0000 O   0  0  0  0  0  0  0  0  0  0  0  0
    0.0000   -2.4750    0.0000 O   0  0  0  0  0  0  0  0  0  0  0  0
    0.7145   -2.8875    0.0000 C   0  0  0  0  0  0  0  0  0  0  0  0
  1  2  1  0  0  0  0
  2  3  1  0  0  0  0
  2  4  2  0  0  0  0
  1  5  2  0  0  0  0
  5  6  1  0  0  0  0
  6  7  2  0  0  0  0
  7  8  1  0  0  0  0
  8  9  2  0  0  0  0
  1  9  1  0  0  0  0
 11 12  1  0  0  0  0
 12 13  2  0  0  0  0
 14 15  1  0  0  0  0
 15 16  2  0  0  0  0
 16 17  1  0  0  0  0
 17 18  2  0  0  0  0
 18 19  1  0  0  0  0
 14 19  2  0  0  0  0
 17 20  1  0  0  0  0
 20 21  2  0  0  0  0
 21 22  1  0  0  0  0
 22 23  1  0  0  0  0
 16 23  1  0  0  0  0
 24 25  1  0  0  0  0
 25 26  2  0  0  0  0
 19 24  1  0  0  0  0
 22 27  2  0  0  0  0
 28 29  1  0  0  0  0
 15 28  1  0  0  0  0
 12 21  1  0  0  0  0
 10 11  1  0  0  0  0
  6 10  1  0  0  0  0
M  END
>  <type>
systematic

$$$$
Benzoic acid, 4- [[2-(6H-indolo[2,3- b ]quinoxalin-6-yl)-2-oxoethyl]amino]-
  Mrv2401 11012423402D          

 30 34  0  0  0  0            999 V2000
   -1.4209    4.5919    0.0000 C   0  0  0  0  0  0  0  0  0  0  0  0
   -2.1782    4.9191    0.0000 C   0  0  0  0  0  0  0  0  0  0  0  0
   -2.8403    4.4269    0.0000 O   0  0  0  0  0  0  0  0  0  0  0  0
   -2.2735    5.7386    0.0000 O   0  0  0  0  0  0  0  0  0  0  0  0
   -0.7588    5.0841    0.0000 C   0  0  0  0  0  0  0  0  0  0  0  0
   -0.0015    4.7569    0.0000 C   0  0  0  0  0  0  0  0  0  0  0  0
    0.0938    3.9374    0.0000 C   0  0  0  0  0  0  0  0  0  0  0  0
   -0.5683    3.4452    0.0000 C   0  0  0  0  0  0  0  0  0  0  0  0
   -1.3256    3.7724    0.0000 C   0  0  0  0  0  0  0  0  0  0  0  0
    0.8511    3.6102    0.0000 N   0  0  0  0  0  0  0  0  0  0  0  0
    0.9464    2.7907    0.0000 C   0  0  0  0  0  0  0  0  0  0  0  0
    1.7037    2.4635    0.0000 C   0  0  0  0  0  0  0  0  0  0  0  0
    2.3658    2.9557    0.0000 O   0  0  0  0  0  0  0  0  0  0  0  0
    5.3198    0.6761    0.0000 C   0  0  0  0  0  0  0  0  0  0  0  0
    4.7006    1.2213    0.0000 C   0  0  0  0  0  0  0  0  0  0  0  0
    3.9189    0.9577    0.0000 C   0  0  0  0  0  0  0  0  0  0  0  0
    3.7562    0.1489    0.0000 C   0  0  0  0  0  0  0  0  0  0  0  0
    4.3754   -0.3963    0.0000 C   0  0  0  0  0  0  0  0  0  0  0  0
    5.1571   -0.1327    0.0000 C   0  0  0  0  0  0  0  0  0  0  0  0
    2.9745   -0.1146    0.0000 N   0  0  0  0  0  0  0  0  0  0  0  0
    3.2997    1.5030    0.0000 N   0  0  0  0  0  0  0  0  0  0  0  0
    2.5180    1.2394    0.0000 C   0  0  0  0  0  0  0  0  0  0  0  0
    2.3553    0.4306    0.0000 C   0  0  0  0  0  0  0  0  0  0  0  0
    1.5359    0.3353    0.0000 C   0  0  0  0  0  0  0  0  0  0  0  0
    1.0583   -0.3374    0.0000 C   0  0  0  0  0  0  0  0  0  0  0  0
    0.2369   -0.2602    0.0000 C   0  0  0  0  0  0  0  0  0  0  0  0
   -0.1069    0.4897    0.0000 C   0  0  0  0  0  0  0  0  0  0  0  0
    0.3706    1.1624    0.0000 C   0  0  0  0  0  0  0  0  0  0  0  0
    1.1920    1.0852    0.0000 C   0  0  0  0  0  0  0  0  0  0  0  0
    1.7990    1.6440    0.0000 N   0  0  0  0  0  0  0  0  0  0  0  0
  1  2  1  0  0  0  0
  2  3  1  0  0  0  0
  2  4  2  0  0  0  0
  1  5  2  0  0  0  0
  5  6  1  0  0  0  0
  6  7  2  0  0  0  0
  7  8  1  0  0  0  0
  8  9  2  0  0  0  0
  1  9  1  0  0  0  0
 11 12  1  0  0  0  0
 12 13  2  0  0  0  0
 14 15  1  0  0  0  0
 15 16  2  0  0  0  0
 16 17  1  0  0  0  0
 17 18  2  0  0  0  0
 18 19  1  0  0  0  0
 14 19  2  0  0  0  0
 17 20  1  0  0  0  0
 20 23  2  0  0  0  0
 22 21  2  0  0  0  0
 16 21  1  0  0  0  0
 22 23  1  0  0  0  0
 23 24  1  0  0  0  0
 24 25  1  0  0  0  0
 25 26  2  0  0  0  0
 26 27  1  0  0  0  0
 27 28  2  0  0  0  0
 28 29  1  0  0  0  0
 24 29  2  0  0  0  0
 29 30  1  0  0  0  0
 22 30  1  0  0  0  0
 12 30  1  0  0  0  0
 10 11  1  0  0  0  0
  7 10  1  0  0  0  0
M  END
>  <type>
systematic

$$$$
5-[(2-Hydroxy-2-phenylacetyl)amino]-2-(6-methoxy-2-naphthalenyl)benzoic acid
  Mrv2401 11012423412D          

 32 35  0  0  0  0            999 V2000
    2.8579   -2.4750    0.0000 C   0  0  0  0  0  0  0  0  0  0  0  0
    2.1434   -2.8875    0.0000 C   0  0  0  0  0  0  0  0  0  0  0  0
    2.1434   -3.7125    0.0000 O   0  0  0  0  0  0  0  0  0  0  0  0
    1.4289   -2.4750    0.0000 O   0  0  0  0  0  0  0  0  0  0  0  0
    2.8579   -1.6500    0.0000 C   0  0  0  0  0  0  0  0  0  0  0  0
    3.5724   -1.2375    0.0000 C   0  0  0  0  0  0  0  0  0  0  0  0
    4.2868   -1.6500    0.0000 C   0  0  0  0  0  0  0  0  0  0  0  0
    4.2868   -2.4750    0.0000 C   0  0  0  0  0  0  0  0  0  0  0  0
    3.5724   -2.8875    0.0000 C   0  0  0  0  0  0  0  0  0  0  0  0
   -0.7145   -1.2375    0.0000 C   0  0  0  0  0  0  0  0  0  0  0  0
    0.0000   -1.6500    0.0000 C   0  0  0  0  0  0  0  0  0  0  0  0
    0.7145   -1.2375    0.0000 C   0  0  0  0  0  0  0  0  0  0  0  0
    0.7145   -0.4125    0.0000 C   0  0  0  0  0  0  0  0  0  0  0  0
    0.0000   -0.0000    0.0000 C   0  0  0  0  0  0  0  0  0  0  0  0
   -0.7145   -0.4125    0.0000 C   0  0  0  0  0  0  0  0  0  0  0  0
    1.4289   -0.0000    0.0000 C   0  0  0  0  0  0  0  0  0  0  0  0
    2.1434   -0.4125    0.0000 C   0  0  0  0  0  0  0  0  0  0  0  0
    2.1434   -1.2375    0.0000 C   0  0  0  0  0  0  0  0  0  0  0  0
    1.4289   -1.6500    0.0000 C   0  0  0  0  0  0  0  0  0  0  0  0
   -1.4289   -0.0000    0.0000 O   0  0  0  0  0  0  0  0  0  0  0  0
   -2.1434   -0.4125    0.0000 C   0  0  0  0  0  0  0  0  0  0  0  0
    5.0013   -2.8875    0.0000 N   0  0  0  0  0  0  0  0  0  0  0  0
    5.0013   -3.7125    0.0000 C   0  0  0  0  0  0  0  0  0  0  0  0
    4.2868   -4.1250    0.0000 O   0  0  0  0  0  0  0  0  0  0  0  0
    5.7158   -4.1250    0.0000 C   0  0  0  0  0  0  0  0  0  0  0  0
    5.7158   -4.9500    0.0000 C   0  0  0  0  0  0  0  0  0  0  0  0
    6.4302   -5.3625    0.0000 C   0  0  0  0  0  0  0  0  0  0  0  0
    6.4302   -6.1875    0.0000 C   0  0  0  0  0  0  0  0  0  0  0  0
    5.7158   -6.6000    0.0000 C   0  0  0  0  0  0  0  0  0  0  0  0
    5.0013   -6.1875    0.0000 C   0  0  0  0  0  0  0  0  0  0  0  0
    5.0013   -5.3625    0.0000 C   0  0  0  0  0  0  0  0  0  0  0  0
    6.4302   -3.7125    0.0000 O   0  0  0  0  0  0  0  0  0  0  0  0
  1  2  1  0  0  0  0
  2  3  1  0  0  0  0
  2  4  2  0  0  0  0
  1  5  2  0  0  0  0
  5  6  1  0  0  0  0
  6  7  2  0  0  0  0
  7  8  1  0  0  0  0
  8  9  2  0  0  0  0
  1  9  1  0  0  0  0
 10 11  2  0  0  0  0
 11 12  1  0  0  0  0
 12 13  1  0  0  0  0
 13 14  1  0  0  0  0
 14 15  2  0  0  0  0
 10 15  1  0  0  0  0
 13 16  2  0  0  0  0
 16 17  1  0  0  0  0
 17 18  2  0  0  0  0
 18 19  1  0  0  0  0
 12 19  2  0  0  0  0
 20 21  1  0  0  0  0
 15 20  1  0  0  0  0
  5 18  1  0  0  0  0
 23 24  2  0  0  0  0
 23 25  1  0  0  0  0
 26 27  2  0  0  0  0
 27 28  1  0  0  0  0
 28 29  2  0  0  0  0
 29 30  1  0  0  0  0
 30 31  2  0  0  0  0
 26 31  1  0  0  0  0
 25 26  1  0  0  0  0
 25 32  1  0  0  0  0
 22 23  1  0  0  0  0
  8 22  1  0  0  0  0
M  END
>  <type>
systematic

$$$$
4-[[2-(2,3-Dihydro-1,5-dimethyl-3-oxo-2-phenyl-1H-pyrazol-4-yl)-1-methyl-2-oxoethyl]amino]benzoic acid
  Mrv2401 11012423422D          

 28 30  0  0  0  0            999 V2000
   -3.9498   -3.4970    0.0000 C   0  0  0  0  0  0  0  0  0  0  0  0
   -4.7703   -3.4107    0.0000 C   0  0  0  0  0  0  0  0  0  0  0  0
   -5.2552   -4.0782    0.0000 O   0  0  0  0  0  0  0  0  0  0  0  0
   -5.1058   -2.6571    0.0000 O   0  0  0  0  0  0  0  0  0  0  0  0
   -3.4649   -2.8295    0.0000 C   0  0  0  0  0  0  0  0  0  0  0  0
   -2.6444   -2.9158    0.0000 C   0  0  0  0  0  0  0  0  0  0  0  0
   -2.3088   -3.6695    0.0000 C   0  0  0  0  0  0  0  0  0  0  0  0
   -2.7938   -4.3369    0.0000 C   0  0  0  0  0  0  0  0  0  0  0  0
   -3.6142   -4.2507    0.0000 C   0  0  0  0  0  0  0  0  0  0  0  0
   -1.4884   -3.7557    0.0000 N   0  0  0  0  0  0  0  0  0  0  0  0
   -1.0034   -3.0882    0.0000 C   0  0  0  0  0  0  0  0  0  0  0  0
   -0.1830   -3.1745    0.0000 C   0  0  0  0  0  0  0  0  0  0  0  0
    0.1526   -3.9282    0.0000 O   0  0  0  0  0  0  0  0  0  0  0  0
   -1.3390   -2.3346    0.0000 C   0  0  0  0  0  0  0  0  0  0  0  0
    0.7145   -1.2375    0.0000 N   0  0  0  0  0  0  0  0  0  0  0  0
    1.3819   -1.7224    0.0000 N   0  0  0  0  0  0  0  0  0  0  0  0
    1.1270   -2.5070    0.0000 C   0  0  0  0  0  0  0  0  0  0  0  0
    0.3020   -2.5070    0.0000 C   0  0  0  0  0  0  0  0  0  0  0  0
    0.0470   -1.7224    0.0000 C   0  0  0  0  0  0  0  0  0  0  0  0
    2.1665   -1.4675    0.0000 C   0  0  0  0  0  0  0  0  0  0  0  0
    2.3381   -0.6605    0.0000 C   0  0  0  0  0  0  0  0  0  0  0  0
    3.1227   -0.4056    0.0000 C   0  0  0  0  0  0  0  0  0  0  0  0
    3.7358   -0.9576    0.0000 C   0  0  0  0  0  0  0  0  0  0  0  0
    3.5642   -1.7646    0.0000 C   0  0  0  0  0  0  0  0  0  0  0  0
    2.7796   -2.0195    0.0000 C   0  0  0  0  0  0  0  0  0  0  0  0
    1.6119   -3.1745    0.0000 O   0  0  0  0  0  0  0  0  0  0  0  0
    0.7145   -0.4125    0.0000 C   0  0  0  0  0  0  0  0  0  0  0  0
   -0.7376   -1.4675    0.0000 C   0  0  0  0  0  0  0  0  0  0  0  0
  1  2  1  0  0  0  0
  2  3  1  0  0  0  0
  2  4  2  0  0  0  0
  1  5  2  0  0  0  0
  5  6  1  0  0  0  0
  6  7  2  0  0  0  0
  7  8  1  0  0  0  0
  8  9  2  0  0  0  0
  1  9  1  0  0  0  0
 11 12  1  0  0  0  0
 12 13  2  0  0  0  0
 11 14  1  0  0  0  0
 15 16  1  0  0  0  0
 16 17  1  0  0  0  0
 17 18  1  0  0  0  0
 18 19  2  0  0  0  0
 15 19  1  0  0  0  0
 20 21  2  0  0  0  0
 21 22  1  0  0  0  0
 22 23  2  0  0  0  0
 23 24  1  0  0  0  0
 24 25  2  0  0  0  0
 20 25  1  0  0  0  0
 16 20  1  0  0  0  0
 17 26  2  0  0  0  0
 15 27  1  0  0  0  0
 19 28  1  0  0  0  0
 12 18  1  0  0  0  0
 10 11  1  0  0  0  0
  7 10  1  0  0  0  0
M  END
>  <type>
systematic

$$$$
5-Thia-1-azabicyclo[4.2.0]oct-2-ene-2-carboxylic acid, 7-[(hydroxy-3-pyridinylacetyl)amino]-8-oxo-, [6 R-(6α,7β)]-
  Mrv2401 11012423422D          

 23 25  0  0  1  0            999 V2000
    1.6905   -0.1510    0.0000 N   0  0  0  0  0  0  0  0  0  0  0  0
    2.4049    0.2615    0.0000 C   0  0  0  0  0  0  0  0  0  0  0  0
    3.1194   -0.1510    0.0000 C   0  0  0  0  0  0  0  0  0  0  0  0
    3.1194   -0.9760    0.0000 C   0  0  0  0  0  0  0  0  0  0  0  0
    2.4049   -1.3885    0.0000 S   0  0  0  0  0  0  0  0  0  0  0  0
    1.6905   -0.9760    0.0000 C   0  0  2  0  0  0  0  0  0  0  0  0
    0.8655   -0.9760    0.0000 C   0  0  2  0  0  0  0  0  0  0  0  0
    0.8655   -0.1510    0.0000 C   0  0  0  0  0  0  0  0  0  0  0  0
    2.4049    1.0865    0.0000 C   0  0  0  0  0  0  0  0  0  0  0  0
    3.1194    1.4990    0.0000 O   0  0  0  0  0  0  0  0  0  0  0  0
    1.6905    1.4990    0.0000 O   0  0  0  0  0  0  0  0  0  0  0  0
    0.2821    0.4324    0.0000 O   0  0  0  0  0  0  0  0  0  0  0  0
    0.2821   -1.5593    0.0000 N   0  0  0  0  0  0  0  0  0  0  0  0
    0.4956   -2.3562    0.0000 C   0  0  0  0  0  0  0  0  0  0  0  0
    1.2925   -2.5698    0.0000 O   0  0  0  0  0  0  0  0  0  0  0  0
   -0.0877   -2.9396    0.0000 C   0  0  0  0  0  0  0  0  0  0  0  0
   -0.2441   -5.1167    0.0000 N   0  0  0  0  0  0  0  0  0  0  0  0
   -0.4576   -4.3199    0.0000 C   0  0  0  0  0  0  0  0  0  0  0  0
    0.1258   -3.7365    0.0000 C   0  0  0  0  0  0  0  0  0  0  0  0
    0.9227   -3.9500    0.0000 C   0  0  0  0  0  0  0  0  0  0  0  0
    1.1362   -4.7469    0.0000 C   0  0  0  0  0  0  0  0  0  0  0  0
    0.5528   -5.3303    0.0000 C   0  0  0  0  0  0  0  0  0  0  0  0
   -0.8846   -2.7261    0.0000 O   0  0  0  0  0  0  0  0  0  0  0  0
  1  2  1  0  0  0  0
  2  3  2  0  0  0  0
  3  4  1  0  0  0  0
  4  5  1  0  0  0  0
  6  5  1  0  0  0  0
  6  1  1  6  0  0  0
  6  7  1  0  0  0  0
  7  8  1  0  0  0  0
  1  8  1  0  0  0  0
  9 10  1  0  0  0  0
  9 11  2  0  0  0  0
  2  9  1  0  0  0  0
  8 12  2  0  0  0  0
 14 15  2  0  0  0  0
 14 16  1  0  0  0  0
 17 18  2  0  0  0  0
 18 19  1  0  0  0  0
 19 20  2  0  0  0  0
 20 21  1  0  0  0  0
 21 22  2  0  0  0  0
 17 22  1  0  0  0  0
 16 19  1  0  0  0  0
 16 23  1  0  0  0  0
 13 14  1  0  0  0  0
  7 13  1  1  0  0  0
M  END
>  <type>
systematic

$$$$
L-Proline, N -(5-carboxy-1,2,4-thiadiazol-3-yl)-L-leucyl-
  Mrv2401 11012423432D          

 24 25  0  0  1  0            999 V2000
    2.3159    2.8785    0.0000 N   0  0  0  0  0  0  0  0  0  0  0  0
    2.4021    3.6989    0.0000 C   0  0  0  0  0  0  0  0  0  0  0  0
    3.2091    3.8705    0.0000 C   0  0  0  0  0  0  0  0  0  0  0  0
    3.6216    3.1560    0.0000 C   0  0  0  0  0  0  0  0  0  0  0  0
    3.0696    2.5429    0.0000 C   0  0  1  0  0  0  0  0  0  0  0  0
    3.2411    1.7359    0.0000 C   0  0  0  0  0  0  0  0  0  0  0  0
    4.0257    1.4810    0.0000 O   0  0  0  0  0  0  0  0  0  0  0  0
    2.6280    1.1839    0.0000 O   0  0  0  0  0  0  0  0  0  0  0  0
    0.8869    1.2285    0.0000 C   0  0  0  0  0  0  0  0  0  0  0  0
    0.1725    1.6410    0.0000 C   0  0  0  0  0  0  0  0  0  0  0  0
   -0.5420    1.2285    0.0000 C   0  0  0  0  0  0  0  0  0  0  0  0
    0.1725    2.4660    0.0000 C   0  0  0  0  0  0  0  0  0  0  0  0
    0.8869    2.8785    0.0000 C   0  0  2  0  0  0  0  0  0  0  0  0
    0.8869    3.7035    0.0000 N   0  0  0  0  0  0  0  0  0  0  0  0
    1.6014    2.4660    0.0000 C   0  0  0  0  0  0  0  0  0  0  0  0
    1.6014    1.6410    0.0000 O   0  0  0  0  0  0  0  0  0  0  0  0
   -0.7207    5.1080    0.0000 S   0  0  0  0  0  0  0  0  0  0  0  0
    0.0862    4.9364    0.0000 N   0  0  0  0  0  0  0  0  0  0  0  0
    0.1725    4.1160    0.0000 C   0  0  0  0  0  0  0  0  0  0  0  0
   -0.5812    3.7804    0.0000 N   0  0  0  0  0  0  0  0  0  0  0  0
   -1.1332    4.3935    0.0000 C   0  0  0  0  0  0  0  0  0  0  0  0
   -1.9537    4.3073    0.0000 C   0  0  0  0  0  0  0  0  0  0  0  0
   -2.2893    3.5536    0.0000 O   0  0  0  0  0  0  0  0  0  0  0  0
   -2.4386    4.9747    0.0000 O   0  0  0  0  0  0  0  0  0  0  0  0
  1  2  1  0  0  0  0
  2  3  1  0  0  0  0
  3  4  1  0  0  0  0
  5  4  1  0  0  0  0
  5  1  1  0  0  0  0
  5  6  1  1  0  0  0
  6  7  1  0  0  0  0
  6  8  2  0  0  0  0
  9 10  1  0  0  0  0
 10 11  1  0  0  0  0
 10 12  1  0  0  0  0
 13 12  1  0  0  0  0
 13 14  1  6  0  0  0
 13 15  1  0  0  0  0
 15 16  2  0  0  0  0
 17 18  1  0  0  0  0
 18 19  2  0  0  0  0
 19 20  1  0  0  0  0
 20 21  2  0  0  0  0
 17 21  1  0  0  0  0
 22 23  1  0  0  0  0
 22 24  2  0  0  0  0
 21 22  1  0  0  0  0
 14 19  1  0  0  0  0
  1 15  1  0  0  0  0
M  END
>  <type>
systematic

$$$$
2-[[2-(2,3-Dihydro-1,5-dimethyl-3-oxo-2-phenyl-1H-pyrazol-4-yl)-2-oxoethyl]amino]benzoic acid
  Mrv2401 11012423442D          

 27 29  0  0  0  0            999 V2000
   -2.6444   -2.9158    0.0000 C   0  0  0  0  0  0  0  0  0  0  0  0
   -2.1595   -2.2483    0.0000 C   0  0  0  0  0  0  0  0  0  0  0  0
   -2.4950   -1.4947    0.0000 O   0  0  0  0  0  0  0  0  0  0  0  0
   -1.3390   -2.3346    0.0000 O   0  0  0  0  0  0  0  0  0  0  0  0
   -2.3088   -3.6695    0.0000 C   0  0  0  0  0  0  0  0  0  0  0  0
   -2.7938   -4.3369    0.0000 C   0  0  0  0  0  0  0  0  0  0  0  0
   -3.6142   -4.2507    0.0000 C   0  0  0  0  0  0  0  0  0  0  0  0
   -3.9498   -3.4970    0.0000 C   0  0  0  0  0  0  0  0  0  0  0  0
   -3.4649   -2.8295    0.0000 C   0  0  0  0  0  0  0  0  0  0  0  0
   -1.4884   -3.7557    0.0000 N   0  0  0  0  0  0  0  0  0  0  0  0
   -1.0034   -3.0882    0.0000 C   0  0  0  0  0  0  0  0  0  0  0  0
   -0.1830   -3.1745    0.0000 C   0  0  0  0  0  0  0  0  0  0  0  0
    0.1526   -3.9282    0.0000 O   0  0  0  0  0  0  0  0  0  0  0  0
    0.7145   -1.2375    0.0000 N   0  0  0  0  0  0  0  0  0  0  0  0
    1.3819   -1.7224    0.0000 N   0  0  0  0  0  0  0  0  0  0  0  0
    1.1270   -2.5070    0.0000 C   0  0  0  0  0  0  0  0  0  0  0  0
    0.3020   -2.5070    0.0000 C   0  0  0  0  0  0  0  0  0  0  0  0
    0.0470   -1.7224    0.0000 C   0  0  0  0  0  0  0  0  0  0  0  0
    2.1665   -1.4675    0.0000 C   0  0  0  0  0  0  0  0  0  0  0  0
    2.3381   -0.6605    0.0000 C   0  0  0  0  0  0  0  0  0  0  0  0
    3.1227   -0.4056    0.0000 C   0  0  0  0  0  0  0  0  0  0  0  0
    3.7358   -0.9576    0.0000 C   0  0  0  0  0  0  0  0  0  0  0  0
    3.5642   -1.7646    0.0000 C   0  0  0  0  0  0  0  0  0  0  0  0
    2.7796   -2.0195    0.0000 C   0  0  0  0  0  0  0  0  0  0  0  0
    1.6119   -3.1745    0.0000 O   0  0  0  0  0  0  0  0  0  0  0  0
    0.7145   -0.4125    0.0000 C   0  0  0  0  0  0  0  0  0  0  0  0
   -0.7376   -1.4675    0.0000 C   0  0  0  0  0  0  0  0  0  0  0  0
  1  2  1  0  0  0  0
  2  3  1  0  0  0  0
  2  4  2  0  0  0  0
  1  5  2  0  0  0  0
  5  6  1  0  0  0  0
  6  7  2  0  0  0  0
  7  8  1  0  0  0  0
  8  9  2  0  0  0  0
  1  9  1  0  0  0  0
 11 12  1  0  0  0  0
 12 13  2  0  0  0  0
 14 15  1  0  0  0  0
 15 16  1  0  0  0  0
 16 17  1  0  0  0  0
 17 18  2  0  0  0  0
 14 18  1  0  0  0  0
 19 20  2  0  0  0  0
 20 21  1  0  0  0  0
 21 22  2  0  0  0  0
 22 23  1  0  0  0  0
 23 24  2  0  0  0  0
 19 24  1  0  0  0  0
 15 19  1  0  0  0  0
 16 25  2  0  0  0  0
 14 26  1  0  0  0  0
 18 27  1  0  0  0  0
 12 17  1  0  0  0  0
 10 11  1  0  0  0  0
  5 10  1  0  0  0  0
M  END
>  <type>
systematic

$$$$
(1S,9S)-Octahydro-6,10-dioxo-9-[(2-oxo-2-phenylacetyl)amino]-6H-pyridazino[1,2- a][1,2]diazepine-1-carboxylic acid
  Mrv2401 11012423452D          

 27 29  0  0  1  0            999 V2000
    1.2365   -1.7427    0.0000 C   0  0  0  0  0  0  0  0  0  0  0  0
    2.0408   -1.5591    0.0000 C   0  0  0  0  0  0  0  0  0  0  0  0
    2.3988   -0.8158    0.0000 C   0  0  0  0  0  0  0  0  0  0  0  0
    2.0408   -0.0725    0.0000 C   0  0  1  0  0  0  0  0  0  0  0  0
    1.2365    0.1111    0.0000 C   0  0  0  0  0  0  0  0  0  0  0  0
    0.5915   -0.4033    0.0000 N   0  0  0  0  0  0  0  0  0  0  0  0
    0.5915   -1.2283    0.0000 N   0  0  0  0  0  0  0  0  0  0  0  0
   -0.1230   -1.6408    0.0000 C   0  0  0  0  0  0  0  0  0  0  0  0
   -0.8374   -1.2283    0.0000 C   0  0  0  0  0  0  0  0  0  0  0  0
   -0.8374   -0.4033    0.0000 C   0  0  0  0  0  0  0  0  0  0  0  0
   -0.1230    0.0092    0.0000 C   0  0  1  0  0  0  0  0  0  0  0  0
   -0.1230    0.8342    0.0000 C   0  0  0  0  0  0  0  0  0  0  0  0
    0.5915    1.2467    0.0000 O   0  0  0  0  0  0  0  0  0  0  0  0
   -0.8374    1.2467    0.0000 O   0  0  0  0  0  0  0  0  0  0  0  0
    2.5552    0.5725    0.0000 N   0  0  0  0  0  0  0  0  0  0  0  0
    3.3710    0.4496    0.0000 C   0  0  0  0  0  0  0  0  0  0  0  0
    3.6724   -0.3184    0.0000 O   0  0  0  0  0  0  0  0  0  0  0  0
    3.8854    1.0946    0.0000 C   0  0  0  0  0  0  0  0  0  0  0  0
    4.7012    0.9716    0.0000 C   0  0  0  0  0  0  0  0  0  0  0  0
    5.2155    1.6166    0.0000 C   0  0  0  0  0  0  0  0  0  0  0  0
    6.0313    1.4937    0.0000 C   0  0  0  0  0  0  0  0  0  0  0  0
    6.3327    0.7257    0.0000 C   0  0  0  0  0  0  0  0  0  0  0  0
    5.8184    0.0807    0.0000 C   0  0  0  0  0  0  0  0  0  0  0  0
    5.0026    0.2036    0.0000 C   0  0  0  0  0  0  0  0  0  0  0  0
    3.5840    1.8625    0.0000 O   0  0  0  0  0  0  0  0  0  0  0  0
    1.0529   -2.5470    0.0000 O   0  0  0  0  0  0  0  0  0  0  0  0
    1.0529    0.9154    0.0000 O   0  0  0  0  0  0  0  0  0  0  0  0
  7  1  1  0  0  0  0
  1  2  1  0  0  0  0
  2  3  1  0  0  0  0
  4  3  1  0  0  0  0
  4  5  1  0  0  0  0
  6  5  1  0  0  0  0
  6  7  1  0  0  0  0
  7  8  1  0  0  0  0
  8  9  1  0  0  0  0
  9 10  1  0  0  0  0
 11 10  1  0  0  0  0
 11  6  1  0  0  0  0
 12 13  1  0  0  0  0
 12 14  2  0  0  0  0
 11 12  1  1  0  0  0
 16 17  2  0  0  0  0
 16 18  1  0  0  0  0
 19 20  2  0  0  0  0
 20 21  1  0  0  0  0
 21 22  2  0  0  0  0
 22 23  1  0  0  0  0
 23 24  2  0  0  0  0
 19 24  1  0  0  0  0
 18 19  1  0  0  0  0
 18 25  2  0  0  0  0
 15 16  1  0  0  0  0
  4 15  1  1  0  0  0
  1 26  2  0  0  0  0
  5 27  2  0  0  0  0
M  END
>  <type>
systematic

$$$$
3-[[(1R)-1-[[(4S)-4-(4-Chlorophenyl)-4-hydroxy-3,3-dimethyl-1-piperidinyl]carbonyl]-2-methylpropyl]amino]benzoic acid
  Mrv2401 11012423462D          

 32 34  0  0  1  0            999 V2000
   -3.3083   -3.4126    0.0000 C   0  0  0  0  0  0  0  0  0  0  0  0
   -3.3083   -2.5876    0.0000 C   0  0  0  0  0  0  0  0  0  0  0  0
   -4.0227   -2.1751    0.0000 O   0  0  0  0  0  0  0  0  0  0  0  0
   -2.5938   -2.1751    0.0000 O   0  0  0  0  0  0  0  0  0  0  0  0
   -2.5938   -3.8251    0.0000 C   0  0  0  0  0  0  0  0  0  0  0  0
   -2.5938   -4.6501    0.0000 C   0  0  0  0  0  0  0  0  0  0  0  0
   -3.3083   -5.0626    0.0000 C   0  0  0  0  0  0  0  0  0  0  0  0
   -4.0227   -4.6501    0.0000 C   0  0  0  0  0  0  0  0  0  0  0  0
   -4.0227   -3.8251    0.0000 C   0  0  0  0  0  0  0  0  0  0  0  0
   -1.8793   -5.0626    0.0000 N   0  0  0  0  0  0  0  0  0  0  0  0
   -1.1649   -4.6501    0.0000 C   0  0  2  0  0  0  0  0  0  0  0  0
   -1.1649   -3.8251    0.0000 C   0  0  0  0  0  0  0  0  0  0  0  0
   -1.8793   -3.4126    0.0000 C   0  0  0  0  0  0  0  0  0  0  0  0
   -0.4504   -3.4126    0.0000 C   0  0  0  0  0  0  0  0  0  0  0  0
   -0.4504   -5.0626    0.0000 C   0  0  0  0  0  0  0  0  0  0  0  0
   -0.4504   -5.8876    0.0000 O   0  0  0  0  0  0  0  0  0  0  0  0
    1.6930   -3.8251    0.0000 C   0  0  2  0  0  0  0  0  0  0  0  0
    1.6930   -4.6501    0.0000 C   0  0  0  0  0  0  0  0  0  0  0  0
    0.9785   -5.0626    0.0000 C   0  0  0  0  0  0  0  0  0  0  0  0
    0.2641   -4.6501    0.0000 N   0  0  0  0  0  0  0  0  0  0  0  0
    0.2641   -3.8251    0.0000 C   0  0  0  0  0  0  0  0  0  0  0  0
    0.9785   -3.4126    0.0000 C   0  0  0  0  0  0  0  0  0  0  0  0
    0.5912   -2.6842    0.0000 C   0  0  0  0  0  0  0  0  0  0  0  0
    1.3659   -2.6842    0.0000 C   0  0  0  0  0  0  0  0  0  0  0  0
    2.5175   -3.7963    0.0000 O   0  0  0  0  0  0  0  0  0  0  0  0
    2.1302   -3.1255    0.0000 C   0  0  0  0  0  0  0  0  0  0  0  0
    1.7429   -2.3970    0.0000 C   0  0  0  0  0  0  0  0  0  0  0  0
    2.1801   -1.6974    0.0000 C   0  0  0  0  0  0  0  0  0  0  0  0
    3.0046   -1.7262    0.0000 C   0  0  0  0  0  0  0  0  0  0  0  0
    3.3919   -2.4546    0.0000 C   0  0  0  0  0  0  0  0  0  0  0  0
    2.9547   -3.1543    0.0000 C   0  0  0  0  0  0  0  0  0  0  0  0
    3.4418   -1.0265    0.0000 Cl  0  0  0  0  0  0  0  0  0  0  0  0
  1  2  1  0  0  0  0
  2  3  1  0  0  0  0
  2  4  2  0  0  0  0
  1  5  2  0  0  0  0
  5  6  1  0  0  0  0
  6  7  2  0  0  0  0
  7  8  1  0  0  0  0
  8  9  2  0  0  0  0
  1  9  1  0  0  0  0
 11 12  1  0  0  0  0
 12 13  1  0  0  0  0
 12 14  1  0  0  0  0
 15 16  2  0  0  0  0
 17 18  1  0  0  0  0
 18 19  1  0  0  0  0
 19 20  1  0  0  0  0
 20 21  1  0  0  0  0
 21 22  1  0  0  0  0
 17 22  1  0  0  0  0
 22 23  1  0  0  0  0
 22 24  1  0  0  0  0
 17 25  1  6  0  0  0
 26 27  2  0  0  0  0
 27 28  1  0  0  0  0
 28 29  2  0  0  0  0
 29 30  1  0  0  0  0
 30 31  2  0  0  0  0
 26 31  1  0  0  0  0
 29 32  1  0  0  0  0
 17 26  1  1  0  0  0
 15 20  1  0  0  0  0
 11 15  1  0  0  0  0
 11 10  1  6  0  0  0
  6 10  1  0  0  0  0
M  END
>  <type>
systematic

$$$$
3-[[2-(6-Chloro-8-methoxy-2-oxo-2H-1-benzopyran-3-yl)-2-oxoethyl]amino]benzoic acid
  Mrv2401 11012423472D          

 27 29  0  0  0  0            999 V2000
    5.7158   -1.6500    0.0000 C   0  0  0  0  0  0  0  0  0  0  0  0
    5.7158   -2.4750    0.0000 C   0  0  0  0  0  0  0  0  0  0  0  0
    6.4302   -2.8875    0.0000 O   0  0  0  0  0  0  0  0  0  0  0  0
    5.0013   -2.8875    0.0000 O   0  0  0  0  0  0  0  0  0  0  0  0
    5.0013   -1.2375    0.0000 C   0  0  0  0  0  0  0  0  0  0  0  0
    5.0013   -0.4125    0.0000 C   0  0  0  0  0  0  0  0  0  0  0  0
    5.7158   -0.0000    0.0000 C   0  0  0  0  0  0  0  0  0  0  0  0
    6.4302   -0.4125    0.0000 C   0  0  0  0  0  0  0  0  0  0  0  0
    6.4302   -1.2375    0.0000 C   0  0  0  0  0  0  0  0  0  0  0  0
    4.2868   -0.0000    0.0000 N   0  0  0  0  0  0  0  0  0  0  0  0
    3.5724   -0.4125    0.0000 C   0  0  0  0  0  0  0  0  0  0  0  0
    2.8579   -0.0000    0.0000 C   0  0  0  0  0  0  0  0  0  0  0  0
    2.8579    0.8250    0.0000 O   0  0  0  0  0  0  0  0  0  0  0  0
   -0.7145   -1.2375    0.0000 C   0  0  0  0  0  0  0  0  0  0  0  0
    0.0000   -1.6500    0.0000 C   0  0  0  0  0  0  0  0  0  0  0  0
    0.7145   -1.2375    0.0000 C   0  0  0  0  0  0  0  0  0  0  0  0
    0.7145   -0.4125    0.0000 C   0  0  0  0  0  0  0  0  0  0  0  0
    0.0000   -0.0000    0.0000 C   0  0  0  0  0  0  0  0  0  0  0  0
   -0.7145   -0.4125    0.0000 C   0  0  0  0  0  0  0  0  0  0  0  0
    1.4289   -0.0000    0.0000 C   0  0  0  0  0  0  0  0  0  0  0  0
    2.1434   -0.4125    0.0000 C   0  0  0  0  0  0  0  0  0  0  0  0
    2.1434   -1.2375    0.0000 C   0  0  0  0  0  0  0  0  0  0  0  0
    1.4289   -1.6500    0.0000 O   0  0  0  0  0  0  0  0  0  0  0  0
    2.8579   -1.6500    0.0000 O   0  0  0  0  0  0  0  0  0  0  0  0
    0.0000   -2.4750    0.0000 O   0  0  0  0  0  0  0  0  0  0  0  0
   -0.7145   -2.8875    0.0000 C   0  0  0  0  0  0  0  0  0  0  0  0
   -1.4289   -0.0000    0.0000 Cl  0  0  0  0  0  0  0  0  0  0  0  0
  1  2  1  0  0  0  0
  2  3  1  0  0  0  0
  2  4  2  0  0  0  0
  1  5  2  0  0  0  0
  5  6  1  0  0  0  0
  6  7  2  0  0  0  0
  7  8  1  0  0  0  0
  8  9  2  0  0  0  0
  1  9  1  0  0  0  0
 11 12  1  0  0  0  0
 12 13  2  0  0  0  0
 14 15  1  0  0  0  0
 15 16  2  0  0  0  0
 16 17  1  0  0  0  0
 17 18  2  0  0  0  0
 18 19  1  0  0  0  0
 14 19  2  0  0  0  0
 17 20  1  0  0  0  0
 20 21  2  0  0  0  0
 21 22  1  0  0  0  0
 22 23  1  0  0  0  0
 16 23  1  0  0  0  0
 22 24  2  0  0  0  0
 25 26  1  0  0  0  0
 15 25  1  0  0  0  0
 19 27  1  0  0  0  0
 12 21  1  0  0  0  0
 10 11  1  0  0  0  0
  6 10  1  0  0  0  0
M  END
>  <type>
systematic

$$$$
(6R,7R)-7-[[(2R)-2-Hydroxy-2-phenylacetyl]amino]-3-methyl-8-oxo-5-thia-1-azabicyclo[4.2.0]oct-2-ene-2-carboxylic acid
  Mrv2401 11012423482D          

 24 26  0  0  1  0            999 V2000
    1.6905   -0.1510    0.0000 N   0  0  0  0  0  0  0  0  0  0  0  0
    2.4049    0.2615    0.0000 C   0  0  0  0  0  0  0  0  0  0  0  0
    3.1194   -0.1510    0.0000 C   0  0  0  0  0  0  0  0  0  0  0  0
    3.1194   -0.9760    0.0000 C   0  0  0  0  0  0  0  0  0  0  0  0
    2.4049   -1.3885    0.0000 S   0  0  0  0  0  0  0  0  0  0  0  0
    1.6905   -0.9760    0.0000 C   0  0  2  0  0  0  0  0  0  0  0  0
    0.8655   -0.9760    0.0000 C   0  0  1  0  0  0  0  0  0  0  0  0
    0.8655   -0.1510    0.0000 C   0  0  0  0  0  0  0  0  0  0  0  0
    2.4049    1.0865    0.0000 C   0  0  0  0  0  0  0  0  0  0  0  0
    3.1194    1.4990    0.0000 O   0  0  0  0  0  0  0  0  0  0  0  0
    1.6905    1.4990    0.0000 O   0  0  0  0  0  0  0  0  0  0  0  0
    0.2821    0.4324    0.0000 O   0  0  0  0  0  0  0  0  0  0  0  0
    3.8339    0.2615    0.0000 C   0  0  0  0  0  0  0  0  0  0  0  0
    0.2821   -1.5593    0.0000 N   0  0  0  0  0  0  0  0  0  0  0  0
   -0.5148   -1.3458    0.0000 C   0  0  0  0  0  0  0  0  0  0  0  0
   -0.7283   -0.5489    0.0000 O   0  0  0  0  0  0  0  0  0  0  0  0
   -1.0982   -1.9292    0.0000 C   0  0  1  0  0  0  0  0  0  0  0  0
   -1.8950   -1.7157    0.0000 C   0  0  0  0  0  0  0  0  0  0  0  0
   -2.4784   -2.2990    0.0000 C   0  0  0  0  0  0  0  0  0  0  0  0
   -3.2753   -2.0855    0.0000 C   0  0  0  0  0  0  0  0  0  0  0  0
   -3.4888   -1.2886    0.0000 C   0  0  0  0  0  0  0  0  0  0  0  0
   -2.9055   -0.7052    0.0000 C   0  0  0  0  0  0  0  0  0  0  0  0
   -2.1086   -0.9188    0.0000 C   0  0  0  0  0  0  0  0  0  0  0  0
   -0.8846   -2.7261    0.0000 O   0  0  0  0  0  0  0  0  0  0  0  0
  1  2  1  0  0  0  0
  2  3  2  0  0  0  0
  3  4  1  0  0  0  0
  4  5  1  0  0  0  0
  6  5  1  0  0  0  0
  6  1  1  6  0  0  0
  6  7  1  0  0  0  0
  7  8  1  0  0  0  0
  1  8  1  0  0  0  0
  9 10  1  0  0  0  0
  9 11  2  0  0  0  0
  2  9  1  0  0  0  0
  8 12  2  0  0  0  0
  3 13  1  0  0  0  0
 15 16  2  0  0  0  0
 17 15  1  0  0  0  0
 18 19  2  0  0  0  0
 19 20  1  0  0  0  0
 20 21  2  0  0  0  0
 21 22  1  0  0  0  0
 22 23  2  0  0  0  0
 18 23  1  0  0  0  0
 17 18  1  0  0  0  0
 17 24  1  6  0  0  0
 14 15  1  0  0  0  0
  7 14  1  6  0  0  0
M  END
>  <type>
systematic

$$$$
5-Oxa-1-azabicyclo[4.2.0]oct-2-ene-2-carboxylic acid, 7-[(hydroxyphenylacetyl)amino]-3-methyl-8-oxo-, [6 R-[6α,7β(R*)]]-
  Mrv2401 11012423492D          

  0  0  0     0  0            999 V3000
M  V30 BEGIN CTAB
M  V30 COUNTS 24 26 0 0 1
M  V30 BEGIN ATOM
M  V30 1 N 3.1555 -0.2818 0 0
M  V30 2 C 4.4892 0.4882 0 0
M  V30 3 C 5.8229 -0.2818 0 0
M  V30 4 C 5.8229 -1.8218 0 0
M  V30 5 O 4.4892 -2.5918 0 0
M  V30 6 C 3.1555 -1.8218 0 0 CFG=2
M  V30 7 C 1.6155 -1.8218 0 0 CFG=2
M  V30 8 C 1.6155 -0.2818 0 0
M  V30 9 C 4.4892 2.0282 0 0
M  V30 10 O 5.8229 2.7982 0 0
M  V30 11 O 3.1555 2.7982 0 0
M  V30 12 O 0.5266 0.8071 0 0
M  V30 13 C 7.1566 0.4882 0 0
M  V30 14 N 0.5266 -2.9108 0 0
M  V30 15 C -0.961 -2.5122 0 0
M  V30 16 O -1.3595 -1.0247 0 0
M  V30 17 C -2.0499 -3.6011 0 0
M  V30 18 C -3.5374 -3.2026 0 0
M  V30 19 C -4.6264 -4.2915 0 0
M  V30 20 C -6.1139 -3.8929 0 0
M  V30 21 C -6.5125 -2.4054 0 0
M  V30 22 C -5.4235 -1.3165 0 0
M  V30 23 C -3.936 -1.715 0 0
M  V30 24 O -1.6513 -5.0887 0 0
M  V30 END ATOM
M  V30 BEGIN BOND
M  V30 1 1 1 2
M  V30 2 2 2 3
M  V30 3 1 3 4
M  V30 4 1 4 5
M  V30 5 1 6 5
M  V30 6 1 6 1 CFG=3
M  V30 7 1 6 7
M  V30 8 1 7 8
M  V30 9 1 1 8
M  V30 10 1 9 10
M  V30 11 2 9 11
M  V30 12 1 2 9
M  V30 13 2 8 12
M  V30 14 1 3 13
M  V30 15 2 15 16
M  V30 16 1 15 17
M  V30 17 2 18 19
M  V30 18 1 19 20
M  V30 19 2 20 21
M  V30 20 1 21 22
M  V30 21 2 22 23
M  V30 22 1 18 23
M  V30 23 1 17 18
M  V30 24 1 17 24
M  V30 25 1 14 15
M  V30 26 1 7 14 CFG=1
M  V30 END BOND
M  V30 BEGIN COLLECTION
M  V30 MDLV30/STEREL1 ATOMS=(1 7)
M  V30 END COLLECTION
M  V30 END CTAB
M  END
>  <type>
systematic

$$$$
4-Thia-1-azabicyclo[3.2.0]heptane-2-carboxylic acid, 3,3-dimethyl-7-oxo-6-[(oxophenylacetyl)amino]-, [2 S-(2α,5α,6β)]-
  Mrv2401 11012423502D          

 24 26  0  0  1  0            999 V2000
    1.7733    0.2488    0.0000 N   0  0  0  0  0  0  0  0  0  0  0  0
    2.5579    0.5038    0.0000 C   0  0  2  0  0  0  0  0  0  0  0  0
    3.0428   -0.1637    0.0000 C   0  0  0  0  0  0  0  0  0  0  0  0
    2.5579   -0.8311    0.0000 S   0  0  0  0  0  0  0  0  0  0  0  0
    1.7733   -0.5762    0.0000 C   0  0  1  0  0  0  0  0  0  0  0  0
    0.9483   -0.5762    0.0000 C   0  0  2  0  0  0  0  0  0  0  0  0
    0.9483    0.2488    0.0000 C   0  0  0  0  0  0  0  0  0  0  0  0
    2.8129    1.2884    0.0000 C   0  0  0  0  0  0  0  0  0  0  0  0
    3.6198    1.4599    0.0000 O   0  0  0  0  0  0  0  0  0  0  0  0
    2.2608    1.9015    0.0000 O   0  0  0  0  0  0  0  0  0  0  0  0
    0.3649   -1.1595    0.0000 N   0  0  0  0  0  0  0  0  0  0  0  0
   -0.4319   -0.9460    0.0000 C   0  0  0  0  0  0  0  0  0  0  0  0
   -0.6455   -0.1491    0.0000 O   0  0  0  0  0  0  0  0  0  0  0  0
   -1.0153   -1.5294    0.0000 C   0  0  0  0  0  0  0  0  0  0  0  0
   -1.8122   -1.3159    0.0000 C   0  0  0  0  0  0  0  0  0  0  0  0
   -2.3956   -1.8992    0.0000 C   0  0  0  0  0  0  0  0  0  0  0  0
   -3.1925   -1.6857    0.0000 C   0  0  0  0  0  0  0  0  0  0  0  0
   -3.4060   -0.8888    0.0000 C   0  0  0  0  0  0  0  0  0  0  0  0
   -2.8226   -0.3054    0.0000 C   0  0  0  0  0  0  0  0  0  0  0  0
   -2.0257   -0.5190    0.0000 C   0  0  0  0  0  0  0  0  0  0  0  0
   -0.8018   -2.3263    0.0000 O   0  0  0  0  0  0  0  0  0  0  0  0
    0.3649    0.8322    0.0000 O   0  0  0  0  0  0  0  0  0  0  0  0
    3.7616    0.2413    0.0000 C   0  0  0  0  0  0  0  0  0  0  0  0
    3.7616   -0.5687    0.0000 C   0  0  0  0  0  0  0  0  0  0  0  0
  2  1  1  0  0  0  0
  2  3  1  0  0  0  0
  3  4  1  0  0  0  0
  5  4  1  0  0  0  0
  5  1  1  1  0  0  0
  5  6  1  0  0  0  0
  6  7  1  0  0  0  0
  1  7  1  0  0  0  0
  8  9  1  0  0  0  0
  8 10  2  0  0  0  0
  2  8  1  1  0  0  0
 12 13  2  0  0  0  0
 12 14  1  0  0  0  0
 15 16  2  0  0  0  0
 16 17  1  0  0  0  0
 17 18  2  0  0  0  0
 18 19  1  0  0  0  0
 19 20  2  0  0  0  0
 15 20  1  0  0  0  0
 14 15  1  0  0  0  0
 14 21  2  0  0  0  0
 11 12  1  0  0  0  0
  6 11  1  1  0  0  0
  7 22  2  0  0  0  0
  3 23  1  0  0  0  0
  3 24  1  0  0  0  0
M  END
>  <type>
systematic

$$$$
7-[(2-Hydroxy-2-phenylacetyl)amino]-3-methyl-8-oxo-4-oxa-1-azabicyclo[4.2.0]oct-2-ene-2-carboxylic acid
  Mrv2401 11012423512D          

 24 26  0  0  0  0            999 V2000
    1.6905   -0.1510    0.0000 N   0  0  0  0  0  0  0  0  0  0  0  0
    2.4049    0.2615    0.0000 C   0  0  0  0  0  0  0  0  0  0  0  0
    3.1194   -0.1510    0.0000 C   0  0  0  0  0  0  0  0  0  0  0  0
    3.1194   -0.9760    0.0000 O   0  0  0  0  0  0  0  0  0  0  0  0
    2.4049   -1.3885    0.0000 C   0  0  0  0  0  0  0  0  0  0  0  0
    1.6905   -0.9760    0.0000 C   0  0  0  0  0  0  0  0  0  0  0  0
    0.8655   -0.9760    0.0000 C   0  0  0  0  0  0  0  0  0  0  0  0
    0.8655   -0.1510    0.0000 C   0  0  0  0  0  0  0  0  0  0  0  0
    2.4049    1.0865    0.0000 C   0  0  0  0  0  0  0  0  0  0  0  0
    3.1194    1.4990    0.0000 O   0  0  0  0  0  0  0  0  0  0  0  0
    1.6905    1.4990    0.0000 O   0  0  0  0  0  0  0  0  0  0  0  0
    0.2821    0.4324    0.0000 O   0  0  0  0  0  0  0  0  0  0  0  0
    3.8339    0.2615    0.0000 C   0  0  0  0  0  0  0  0  0  0  0  0
    0.2821   -1.5593    0.0000 N   0  0  0  0  0  0  0  0  0  0  0  0
   -0.5148   -1.3458    0.0000 C   0  0  0  0  0  0  0  0  0  0  0  0
   -0.7283   -0.5489    0.0000 O   0  0  0  0  0  0  0  0  0  0  0  0
   -1.0982   -1.9292    0.0000 C   0  0  0  0  0  0  0  0  0  0  0  0
   -1.8950   -1.7157    0.0000 C   0  0  0  0  0  0  0  0  0  0  0  0
   -2.4784   -2.2990    0.0000 C   0  0  0  0  0  0  0  0  0  0  0  0
   -3.2753   -2.0855    0.0000 C   0  0  0  0  0  0  0  0  0  0  0  0
   -3.4888   -1.2886    0.0000 C   0  0  0  0  0  0  0  0  0  0  0  0
   -2.9055   -0.7052    0.0000 C   0  0  0  0  0  0  0  0  0  0  0  0
   -2.1086   -0.9188    0.0000 C   0  0  0  0  0  0  0  0  0  0  0  0
   -0.8846   -2.7261    0.0000 O   0  0  0  0  0  0  0  0  0  0  0  0
  1  2  1  0  0  0  0
  2  3  2  0  0  0  0
  3  4  1  0  0  0  0
  4  5  1  0  0  0  0
  5  6  1  0  0  0  0
  1  6  1  0  0  0  0
  6  7  1  0  0  0  0
  7  8  1  0  0  0  0
  1  8  1  0  0  0  0
  9 10  1  0  0  0  0
  9 11  2  0  0  0  0
  2  9  1  0  0  0  0
  8 12  2  0  0  0  0
  3 13  1  0  0  0  0
 15 16  2  0  0  0  0
 15 17  1  0  0  0  0
 18 19  2  0  0  0  0
 19 20  1  0  0  0  0
 20 21  2  0  0  0  0
 21 22  1  0  0  0  0
 22 23  2  0  0  0  0
 18 23  1  0  0  0  0
 17 18  1  0  0  0  0
 17 24  1  0  0  0  0
 14 15  1  0  0  0  0
  7 14  1  0  0  0  0
M  END
>  <type>
systematic

$$$$
5-Thia-1-azabicyclo[4.2.0]oct-2-ene-2-carboxylic acid, 7-[[(2S)-hydroxyphenylacetyl]amino]-3-methyl-8-oxo-, (6R,7R)-
  Mrv2401 11012423522D          

 24 26  0  0  1  0            999 V2000
    1.6905   -0.1510    0.0000 N   0  0  0  0  0  0  0  0  0  0  0  0
    2.4049    0.2615    0.0000 C   0  0  0  0  0  0  0  0  0  0  0  0
    3.1194   -0.1510    0.0000 C   0  0  0  0  0  0  0  0  0  0  0  0
    3.1194   -0.9760    0.0000 C   0  0  0  0  0  0  0  0  0  0  0  0
    2.4049   -1.3885    0.0000 S   0  0  0  0  0  0  0  0  0  0  0  0
    1.6905   -0.9760    0.0000 C   0  0  2  0  0  0  0  0  0  0  0  0
    0.8655   -0.9760    0.0000 C   0  0  1  0  0  0  0  0  0  0  0  0
    0.8655   -0.1510    0.0000 C   0  0  0  0  0  0  0  0  0  0  0  0
    2.4049    1.0865    0.0000 C   0  0  0  0  0  0  0  0  0  0  0  0
    3.1194    1.4990    0.0000 O   0  0  0  0  0  0  0  0  0  0  0  0
    1.6905    1.4990    0.0000 O   0  0  0  0  0  0  0  0  0  0  0  0
    0.2821    0.4324    0.0000 O   0  0  0  0  0  0  0  0  0  0  0  0
    3.8339    0.2615    0.0000 C   0  0  0  0  0  0  0  0  0  0  0  0
    0.2821   -1.5593    0.0000 N   0  0  0  0  0  0  0  0  0  0  0  0
   -0.5148   -1.3458    0.0000 C   0  0  0  0  0  0  0  0  0  0  0  0
   -0.7283   -0.5489    0.0000 O   0  0  0  0  0  0  0  0  0  0  0  0
   -1.0982   -1.9292    0.0000 C   0  0  2  0  0  0  0  0  0  0  0  0
   -1.8950   -1.7157    0.0000 C   0  0  0  0  0  0  0  0  0  0  0  0
   -2.4784   -2.2990    0.0000 C   0  0  0  0  0  0  0  0  0  0  0  0
   -3.2753   -2.0855    0.0000 C   0  0  0  0  0  0  0  0  0  0  0  0
   -3.4888   -1.2886    0.0000 C   0  0  0  0  0  0  0  0  0  0  0  0
   -2.9055   -0.7052    0.0000 C   0  0  0  0  0  0  0  0  0  0  0  0
   -2.1086   -0.9188    0.0000 C   0  0  0  0  0  0  0  0  0  0  0  0
   -0.8846   -2.7261    0.0000 O   0  0  0  0  0  0  0  0  0  0  0  0
  1  2  1  0  0  0  0
  2  3  2  0  0  0  0
  3  4  1  0  0  0  0
  4  5  1  0  0  0  0
  6  5  1  0  0  0  0
  6  1  1  6  0  0  0
  6  7  1  0  0  0  0
  7  8  1  0  0  0  0
  1  8  1  0  0  0  0
  9 10  1  0  0  0  0
  9 11  2  0  0  0  0
  2  9  1  0  0  0  0
  8 12  2  0  0  0  0
  3 13  1  0  0  0  0
 15 16  2  0  0  0  0
 17 15  1  0  0  0  0
 18 19  2  0  0  0  0
 19 20  1  0  0  0  0
 20 21  2  0  0  0  0
 21 22  1  0  0  0  0
 22 23  2  0  0  0  0
 18 23  1  0  0  0  0
 17 18  1  0  0  0  0
 17 24  1  1  0  0  0
 14 15  1  0  0  0  0
  7 14  1  6  0  0  0
M  END
>  <type>
systematic

$$$$
5-Thia-1-azabicyclo[4.2.0]oct-2-ene-2-carboxylic acid, 7-[[hydroxy(4-hydroxyphenyl)acetyl]amino]-8-oxo-, [6 R-(6α,7β)]-
  Mrv2401 11012423532D          

 24 26  0  0  1  0            999 V2000
    1.6905   -0.1510    0.0000 N   0  0  0  0  0  0  0  0  0  0  0  0
    2.4049    0.2615    0.0000 C   0  0  0  0  0  0  0  0  0  0  0  0
    3.1194   -0.1510    0.0000 C   0  0  0  0  0  0  0  0  0  0  0  0
    3.1194   -0.9760    0.0000 C   0  0  0  0  0  0  0  0  0  0  0  0
    2.4049   -1.3885    0.0000 S   0  0  0  0  0  0  0  0  0  0  0  0
    1.6905   -0.9760    0.0000 C   0  0  2  0  0  0  0  0  0  0  0  0
    0.8655   -0.9760    0.0000 C   0  0  2  0  0  0  0  0  0  0  0  0
    0.8655   -0.1510    0.0000 C   0  0  0  0  0  0  0  0  0  0  0  0
    2.4049    1.0865    0.0000 C   0  0  0  0  0  0  0  0  0  0  0  0
    3.1194    1.4990    0.0000 O   0  0  0  0  0  0  0  0  0  0  0  0
    1.6905    1.4990    0.0000 O   0  0  0  0  0  0  0  0  0  0  0  0
    0.2821    0.4324    0.0000 O   0  0  0  0  0  0  0  0  0  0  0  0
    0.2821   -1.5593    0.0000 N   0  0  0  0  0  0  0  0  0  0  0  0
   -0.5148   -1.3458    0.0000 C   0  0  0  0  0  0  0  0  0  0  0  0
   -0.7283   -0.5489    0.0000 O   0  0  0  0  0  0  0  0  0  0  0  0
   -1.0982   -1.9292    0.0000 C   0  0  0  0  0  0  0  0  0  0  0  0
   -1.8950   -1.7157    0.0000 C   0  0  0  0  0  0  0  0  0  0  0  0
   -2.4784   -2.2990    0.0000 C   0  0  0  0  0  0  0  0  0  0  0  0
   -3.2753   -2.0855    0.0000 C   0  0  0  0  0  0  0  0  0  0  0  0
   -3.4888   -1.2886    0.0000 C   0  0  0  0  0  0  0  0  0  0  0  0
   -2.9055   -0.7052    0.0000 C   0  0  0  0  0  0  0  0  0  0  0  0
   -2.1086   -0.9188    0.0000 C   0  0  0  0  0  0  0  0  0  0  0  0
   -4.2857   -1.0751    0.0000 O   0  0  0  0  0  0  0  0  0  0  0  0
   -0.8846   -2.7261    0.0000 O   0  0  0  0  0  0  0  0  0  0  0  0
  1  2  1  0  0  0  0
  2  3  2  0  0  0  0
  3  4  1  0  0  0  0
  4  5  1  0  0  0  0
  6  5  1  0  0  0  0
  6  1  1  6  0  0  0
  6  7  1  0  0  0  0
  7  8  1  0  0  0  0
  1  8  1  0  0  0  0
  9 10  1  0  0  0  0
  9 11  2  0  0  0  0
  2  9  1  0  0  0  0
  8 12  2  0  0  0  0
 14 15  2  0  0  0  0
 14 16  1  0  0  0  0
 17 18  2  0  0  0  0
 18 19  1  0  0  0  0
 19 20  2  0  0  0  0
 20 21  1  0  0  0  0
 21 22  2  0  0  0  0
 17 22  1  0  0  0  0
 20 23  1  0  0  0  0
 16 17  1  0  0  0  0
 16 24  1  0  0  0  0
 13 14  1  0  0  0  0
  7 13  1  1  0  0  0
M  END
>  <type>
systematic

$$$$
4-Thia-1-azabicyclo[3.2.0]heptane-2-carboxylic acid, 6-[(hydroxyphenylacetyl)amino]-3,3-dimethyl-7-oxo-, 4-oxide, [2 S-(2α,5α,6β)]-
  Mrv2401 11012423542D          

 25 27  0  0  1  0            999 V2000
    1.7733    0.2488    0.0000 N   0  0  0  0  0  0  0  0  0  0  0  0
    2.5579    0.5038    0.0000 C   0  0  2  0  0  0  0  0  0  0  0  0
    3.0428   -0.1637    0.0000 C   0  0  0  0  0  0  0  0  0  0  0  0
    2.5579   -0.8311    0.0000 S   0  0  0  0  0  0  0  0  0  0  0  0
    1.7733   -0.5762    0.0000 C   0  0  1  0  0  0  0  0  0  0  0  0
    0.9483   -0.5762    0.0000 C   0  0  2  0  0  0  0  0  0  0  0  0
    0.9483    0.2488    0.0000 C   0  0  0  0  0  0  0  0  0  0  0  0
    2.8129    1.2884    0.0000 C   0  0  0  0  0  0  0  0  0  0  0  0
    3.6198    1.4599    0.0000 O   0  0  0  0  0  0  0  0  0  0  0  0
    2.2608    1.9015    0.0000 O   0  0  0  0  0  0  0  0  0  0  0  0
    0.3649    0.8322    0.0000 O   0  0  0  0  0  0  0  0  0  0  0  0
    3.7616    0.2413    0.0000 C   0  0  0  0  0  0  0  0  0  0  0  0
    3.7616   -0.5687    0.0000 C   0  0  0  0  0  0  0  0  0  0  0  0
    0.3649   -1.1595    0.0000 N   0  0  0  0  0  0  0  0  0  0  0  0
   -0.4319   -0.9460    0.0000 C   0  0  0  0  0  0  0  0  0  0  0  0
   -0.6455   -0.1491    0.0000 O   0  0  0  0  0  0  0  0  0  0  0  0
   -1.0153   -1.5294    0.0000 C   0  0  0  0  0  0  0  0  0  0  0  0
   -1.8122   -1.3159    0.0000 C   0  0  0  0  0  0  0  0  0  0  0  0
   -2.3956   -1.8992    0.0000 C   0  0  0  0  0  0  0  0  0  0  0  0
   -3.1925   -1.6857    0.0000 C   0  0  0  0  0  0  0  0  0  0  0  0
   -3.4060   -0.8888    0.0000 C   0  0  0  0  0  0  0  0  0  0  0  0
   -2.8226   -0.3054    0.0000 C   0  0  0  0  0  0  0  0  0  0  0  0
   -2.0257   -0.5190    0.0000 C   0  0  0  0  0  0  0  0  0  0  0  0
   -0.8018   -2.3263    0.0000 O   0  0  0  0  0  0  0  0  0  0  0  0
    2.8129   -1.6157    0.0000 O   0  0  0  0  0  0  0  0  0  0  0  0
  2  1  1  0  0  0  0
  2  3  1  0  0  0  0
  3  4  1  0  0  0  0
  5  4  1  0  0  0  0
  5  1  1  1  0  0  0
  5  6  1  0  0  0  0
  6  7  1  0  0  0  0
  1  7  1  0  0  0  0
  8  9  1  0  0  0  0
  8 10  2  0  0  0  0
  2  8  1  1  0  0  0
  7 11  2  0  0  0  0
  3 12  1  0  0  0  0
  3 13  1  0  0  0  0
 15 16  2  0  0  0  0
 15 17  1  0  0  0  0
 18 19  2  0  0  0  0
 19 20  1  0  0  0  0
 20 21  2  0  0  0  0
 21 22  1  0  0  0  0
 22 23  2  0  0  0  0
 18 23  1  0  0  0  0
 17 18  1  0  0  0  0
 17 24  1  0  0  0  0
 14 15  1  0  0  0  0
  6 14  1  1  0  0  0
  4 25  2  0  0  0  0
M  END
>  <type>
systematic

$$$$
5-Thia-1-azabicyclo[4.2.0]oct-2-ene-2-carboxylic acid, 7-[(hydroxyphenylacetyl)amino]-4-methyl-8-oxo-, [6 R-(6α,7β)]-
  Mrv2401 11012423552D          

 24 26  0  0  1  0            999 V2000
    1.6905   -0.1510    0.0000 N   0  0  0  0  0  0  0  0  0  0  0  0
    2.4049    0.2615    0.0000 C   0  0  0  0  0  0  0  0  0  0  0  0
    3.1194   -0.1510    0.0000 C   0  0  0  0  0  0  0  0  0  0  0  0
    3.1194   -0.9760    0.0000 C   0  0  0  0  0  0  0  0  0  0  0  0
    2.4049   -1.3885    0.0000 S   0  0  0  0  0  0  0  0  0  0  0  0
    1.6905   -0.9760    0.0000 C   0  0  2  0  0  0  0  0  0  0  0  0
    0.8655   -0.9760    0.0000 C   0  0  2  0  0  0  0  0  0  0  0  0
    0.8655   -0.1510    0.0000 C   0  0  0  0  0  0  0  0  0  0  0  0
    2.4049    1.0865    0.0000 C   0  0  0  0  0  0  0  0  0  0  0  0
    3.1194    1.4990    0.0000 O   0  0  0  0  0  0  0  0  0  0  0  0
    1.6905    1.4990    0.0000 O   0  0  0  0  0  0  0  0  0  0  0  0
    0.2821    0.4324    0.0000 O   0  0  0  0  0  0  0  0  0  0  0  0
    3.8339   -1.3885    0.0000 C   0  0  0  0  0  0  0  0  0  0  0  0
    0.2821   -1.5593    0.0000 N   0  0  0  0  0  0  0  0  0  0  0  0
   -0.5148   -1.3458    0.0000 C   0  0  0  0  0  0  0  0  0  0  0  0
   -0.7283   -0.5489    0.0000 O   0  0  0  0  0  0  0  0  0  0  0  0
   -1.0982   -1.9292    0.0000 C   0  0  0  0  0  0  0  0  0  0  0  0
   -1.8950   -1.7157    0.0000 C   0  0  0  0  0  0  0  0  0  0  0  0
   -2.4784   -2.2990    0.0000 C   0  0  0  0  0  0  0  0  0  0  0  0
   -3.2753   -2.0855    0.0000 C   0  0  0  0  0  0  0  0  0  0  0  0
   -3.4888   -1.2886    0.0000 C   0  0  0  0  0  0  0  0  0  0  0  0
   -2.9055   -0.7052    0.0000 C   0  0  0  0  0  0  0  0  0  0  0  0
   -2.1086   -0.9188    0.0000 C   0  0  0  0  0  0  0  0  0  0  0  0
   -0.8846   -2.7261    0.0000 O   0  0  0  0  0  0  0  0  0  0  0  0
  1  2  1  0  0  0  0
  2  3  2  0  0  0  0
  3  4  1  0  0  0  0
  4  5  1  0  0  0  0
  6  5  1  0  0  0  0
  6  1  1  6  0  0  0
  6  7  1  0  0  0  0
  7  8  1  0  0  0  0
  1  8  1  0  0  0  0
  9 10  1  0  0  0  0
  9 11  2  0  0  0  0
  2  9  1  0  0  0  0
  8 12  2  0  0  0  0
  4 13  1  0  0  0  0
 15 16  2  0  0  0  0
 15 17  1  0  0  0  0
 18 19  2  0  0  0  0
 19 20  1  0  0  0  0
 20 21  2  0  0  0  0
 21 22  1  0  0  0  0
 22 23  2  0  0  0  0
 18 23  1  0  0  0  0
 17 18  1  0  0  0  0
 17 24  1  0  0  0  0
 14 15  1  0  0  0  0
  7 14  1  1  0  0  0
M  END
>  <type>
systematic

$$$$
5-Thia-1-azabicyclo[4.2.0]oct-2-ene-2-carboxylic acid, 7-[(hydroxyphenylacetyl)amino]-4-methyl-8-oxo-, [4 R-(4α,6α,7β)]-
  Mrv2401 11012423562D          

 24 26  0  0  1  0            999 V2000
    1.6905   -0.1510    0.0000 N   0  0  0  0  0  0  0  0  0  0  0  0
    2.4049    0.2615    0.0000 C   0  0  0  0  0  0  0  0  0  0  0  0
    3.1194   -0.1510    0.0000 C   0  0  0  0  0  0  0  0  0  0  0  0
    3.1194   -0.9760    0.0000 C   0  0  2  0  0  0  0  0  0  0  0  0
    2.4049   -1.3885    0.0000 S   0  0  0  0  0  0  0  0  0  0  0  0
    1.6905   -0.9760    0.0000 C   0  0  1  0  0  0  0  0  0  0  0  0
    0.8655   -0.9760    0.0000 C   0  0  2  0  0  0  0  0  0  0  0  0
    0.8655   -0.1510    0.0000 C   0  0  0  0  0  0  0  0  0  0  0  0
    2.4049    1.0865    0.0000 C   0  0  0  0  0  0  0  0  0  0  0  0
    3.1194    1.4990    0.0000 O   0  0  0  0  0  0  0  0  0  0  0  0
    1.6905    1.4990    0.0000 O   0  0  0  0  0  0  0  0  0  0  0  0
    0.2821    0.4324    0.0000 O   0  0  0  0  0  0  0  0  0  0  0  0
    3.8339   -1.3885    0.0000 C   0  0  0  0  0  0  0  0  0  0  0  0
    0.2821   -1.5593    0.0000 N   0  0  0  0  0  0  0  0  0  0  0  0
   -0.5148   -1.3458    0.0000 C   0  0  0  0  0  0  0  0  0  0  0  0
   -0.7283   -0.5489    0.0000 O   0  0  0  0  0  0  0  0  0  0  0  0
   -1.0982   -1.9292    0.0000 C   0  0  0  0  0  0  0  0  0  0  0  0
   -1.8950   -1.7157    0.0000 C   0  0  0  0  0  0  0  0  0  0  0  0
   -2.4784   -2.2990    0.0000 C   0  0  0  0  0  0  0  0  0  0  0  0
   -3.2753   -2.0855    0.0000 C   0  0  0  0  0  0  0  0  0  0  0  0
   -3.4888   -1.2886    0.0000 C   0  0  0  0  0  0  0  0  0  0  0  0
   -2.9055   -0.7052    0.0000 C   0  0  0  0  0  0  0  0  0  0  0  0
   -2.1086   -0.9188    0.0000 C   0  0  0  0  0  0  0  0  0  0  0  0
   -0.8846   -2.7261    0.0000 O   0  0  0  0  0  0  0  0  0  0  0  0
  1  2  1  0  0  0  0
  2  3  2  0  0  0  0
  4  3  1  0  0  0  0
  4  5  1  0  0  0  0
  6  5  1  0  0  0  0
  6  1  1  1  0  0  0
  6  7  1  0  0  0  0
  7  8  1  0  0  0  0
  1  8  1  0  0  0  0
  9 10  1  0  0  0  0
  9 11  2  0  0  0  0
  2  9  1  0  0  0  0
  8 12  2  0  0  0  0
  4 13  1  1  0  0  0
 15 16  2  0  0  0  0
 15 17  1  0  0  0  0
 18 19  2  0  0  0  0
 19 20  1  0  0  0  0
 20 21  2  0  0  0  0
 21 22  1  0  0  0  0
 22 23  2  0  0  0  0
 18 23  1  0  0  0  0
 17 18  1  0  0  0  0
 17 24  1  0  0  0  0
 14 15  1  0  0  0  0
  7 14  1  1  0  0  0
M  END
>  <type>
systematic

$$$$
5-Thia-1-azabicyclo[4.2.0]oct-2-ene-2-carboxylic acid, 7-[(hydroxyphenylacetyl)amino]-4-methyl-8-oxo-, [4 S-[4α,6β,7α(S*)]]-
  Mrv2401 11012423562D          

  0  0  0     0  0            999 V3000
M  V30 BEGIN CTAB
M  V30 COUNTS 24 26 0 0 1
M  V30 BEGIN ATOM
M  V30 1 N 3.1555 -0.2818 0 0
M  V30 2 C 4.4892 0.4882 0 0
M  V30 3 C 5.8229 -0.2818 0 0
M  V30 4 C 5.8229 -1.8218 0 0 CFG=1
M  V30 5 S 4.4892 -2.5918 0 0
M  V30 6 C 3.1555 -1.8218 0 0 CFG=2
M  V30 7 C 1.6155 -1.8218 0 0 CFG=2
M  V30 8 C 1.6155 -0.2818 0 0
M  V30 9 C 4.4892 2.0282 0 0
M  V30 10 O 5.8229 2.7982 0 0
M  V30 11 O 3.1555 2.7982 0 0
M  V30 12 O 0.5266 0.8071 0 0
M  V30 13 C 7.1566 -2.5918 0 0
M  V30 14 N 0.5266 -2.9108 0 0
M  V30 15 C -0.961 -2.5122 0 0
M  V30 16 O -1.3595 -1.0247 0 0
M  V30 17 C -2.0499 -3.6011 0 0
M  V30 18 C -3.5374 -3.2026 0 0
M  V30 19 C -4.6264 -4.2915 0 0
M  V30 20 C -6.1139 -3.8929 0 0
M  V30 21 C -6.5125 -2.4054 0 0
M  V30 22 C -5.4235 -1.3165 0 0
M  V30 23 C -3.936 -1.715 0 0
M  V30 24 O -1.6513 -5.0887 0 0
M  V30 END ATOM
M  V30 BEGIN BOND
M  V30 1 1 1 2
M  V30 2 2 2 3
M  V30 3 1 4 3
M  V30 4 1 4 5
M  V30 5 1 6 5
M  V30 6 1 6 1 CFG=3
M  V30 7 1 6 7
M  V30 8 1 7 8
M  V30 9 1 1 8
M  V30 10 1 9 10
M  V30 11 2 9 11
M  V30 12 1 2 9
M  V30 13 2 8 12
M  V30 14 1 4 13 CFG=3
M  V30 15 2 15 16
M  V30 16 1 15 17
M  V30 17 2 18 19
M  V30 18 1 19 20
M  V30 19 2 20 21
M  V30 20 1 21 22
M  V30 21 2 22 23
M  V30 22 1 18 23
M  V30 23 1 17 18
M  V30 24 1 17 24
M  V30 25 1 14 15
M  V30 26 1 7 14 CFG=1
M  V30 END BOND
M  V30 BEGIN COLLECTION
M  V30 MDLV30/STEREL1 ATOMS=(1 7)
M  V30 END COLLECTION
M  V30 END CTAB
M  END
>  <type>
systematic

$$$$
5-Thia-1-azabicyclo[4.2.0]oct-2-ene-2-carboxylic acid, 7-[(hydroxyphenylacetyl)amino]-4-methyl-8-oxo-, [4 R-[4α,6α,7β(R*)]]-
  Mrv2401 11012423572D          

  0  0  0     0  0            999 V3000
M  V30 BEGIN CTAB
M  V30 COUNTS 24 26 0 0 1
M  V30 BEGIN ATOM
M  V30 1 N 3.1555 -0.2818 0 0
M  V30 2 C 4.4892 0.4882 0 0
M  V30 3 C 5.8229 -0.2818 0 0
M  V30 4 C 5.8229 -1.8218 0 0 CFG=2
M  V30 5 S 4.4892 -2.5918 0 0
M  V30 6 C 3.1555 -1.8218 0 0 CFG=1
M  V30 7 C 1.6155 -1.8218 0 0 CFG=1
M  V30 8 C 1.6155 -0.2818 0 0
M  V30 9 C 4.4892 2.0282 0 0
M  V30 10 O 5.8229 2.7982 0 0
M  V30 11 O 3.1555 2.7982 0 0
M  V30 12 O 0.5266 0.8071 0 0
M  V30 13 C 7.1566 -2.5918 0 0
M  V30 14 N 0.5266 -2.9108 0 0
M  V30 15 C -0.961 -2.5122 0 0
M  V30 16 O -1.3595 -1.0247 0 0
M  V30 17 C -2.0499 -3.6011 0 0
M  V30 18 C -3.5374 -3.2026 0 0
M  V30 19 C -4.6264 -4.2915 0 0
M  V30 20 C -6.1139 -3.8929 0 0
M  V30 21 C -6.5125 -2.4054 0 0
M  V30 22 C -5.4235 -1.3165 0 0
M  V30 23 C -3.936 -1.715 0 0
M  V30 24 O -1.6513 -5.0887 0 0
M  V30 END ATOM
M  V30 BEGIN BOND
M  V30 1 1 1 2
M  V30 2 2 2 3
M  V30 3 1 4 3
M  V30 4 1 4 5
M  V30 5 1 6 5
M  V30 6 1 6 1 CFG=1
M  V30 7 1 6 7
M  V30 8 1 7 8
M  V30 9 1 1 8
M  V30 10 1 9 10
M  V30 11 2 9 11
M  V30 12 1 2 9
M  V30 13 2 8 12
M  V30 14 1 4 13 CFG=1
M  V30 15 2 15 16
M  V30 16 1 15 17
M  V30 17 2 18 19
M  V30 18 1 19 20
M  V30 19 2 20 21
M  V30 20 1 21 22
M  V30 21 2 22 23
M  V30 22 1 18 23
M  V30 23 1 17 18
M  V30 24 1 17 24
M  V30 25 1 14 15
M  V30 26 1 7 14 CFG=3
M  V30 END BOND
M  V30 BEGIN COLLECTION
M  V30 MDLV30/STEREL1 ATOMS=(1 7)
M  V30 END COLLECTION
M  V30 END CTAB
M  END
>  <type>
systematic

$$$$
5-Thia-1-azabicyclo[4.2.0]oct-2-ene-2-carboxylic acid, 7-[(hydroxyphenylacetyl)amino]-4-methyl-8-oxo-, [6 R-[6α,7β(R*)]]-
  Mrv2401 11012423582D          

  0  0  0     0  0            999 V3000
M  V30 BEGIN CTAB
M  V30 COUNTS 24 26 0 0 1
M  V30 BEGIN ATOM
M  V30 1 N 3.1555 -0.2818 0 0
M  V30 2 C 4.4892 0.4882 0 0
M  V30 3 C 5.8229 -0.2818 0 0
M  V30 4 C 5.8229 -1.8218 0 0
M  V30 5 S 4.4892 -2.5918 0 0
M  V30 6 C 3.1555 -1.8218 0 0 CFG=2
M  V30 7 C 1.6155 -1.8218 0 0 CFG=1
M  V30 8 C 1.6155 -0.2818 0 0
M  V30 9 C 4.4892 2.0282 0 0
M  V30 10 O 5.8229 2.7982 0 0
M  V30 11 O 3.1555 2.7982 0 0
M  V30 12 O 0.5266 0.8071 0 0
M  V30 13 C 7.1566 -2.5918 0 0
M  V30 14 N 0.5266 -2.9108 0 0
M  V30 15 C -0.961 -2.5122 0 0
M  V30 16 O -1.3595 -1.0247 0 0
M  V30 17 C -2.0499 -3.6011 0 0
M  V30 18 C -3.5374 -3.2026 0 0
M  V30 19 C -4.6264 -4.2915 0 0
M  V30 20 C -6.1139 -3.8929 0 0
M  V30 21 C -6.5125 -2.4054 0 0
M  V30 22 C -5.4235 -1.3165 0 0
M  V30 23 C -3.936 -1.715 0 0
M  V30 24 O -1.6513 -5.0887 0 0
M  V30 END ATOM
M  V30 BEGIN BOND
M  V30 1 1 1 2
M  V30 2 2 2 3
M  V30 3 1 3 4
M  V30 4 1 4 5
M  V30 5 1 6 5
M  V30 6 1 6 1 CFG=3
M  V30 7 1 6 7
M  V30 8 1 7 8
M  V30 9 1 1 8
M  V30 10 1 9 10
M  V30 11 2 9 11
M  V30 12 1 2 9
M  V30 13 2 8 12
M  V30 14 1 4 13
M  V30 15 2 15 16
M  V30 16 1 15 17
M  V30 17 2 18 19
M  V30 18 1 19 20
M  V30 19 2 20 21
M  V30 20 1 21 22
M  V30 21 2 22 23
M  V30 22 1 18 23
M  V30 23 1 17 18
M  V30 24 1 17 24
M  V30 25 1 14 15
M  V30 26 1 7 14 CFG=3
M  V30 END BOND
M  V30 BEGIN COLLECTION
M  V30 MDLV30/STEREL1 ATOMS=(1 7)
M  V30 END COLLECTION
M  V30 END CTAB
M  END
>  <type>
systematic

$$$$
5-Thia-1-azabicyclo[4.2.0]oct-2-ene-2-carboxylic acid, 3-ethenyl-7-[(hydroxyphenylacetyl)amino]-8-oxo-, [6 R-[6α,7β(R*)]]-
  Mrv2401 11022400012D          

  0  0  0     0  0            999 V3000
M  V30 BEGIN CTAB
M  V30 COUNTS 25 27 0 0 1
M  V30 BEGIN ATOM
M  V30 1 N 3.1555 -0.2818 0 0
M  V30 2 C 4.4892 0.4882 0 0
M  V30 3 C 5.8229 -0.2818 0 0
M  V30 4 C 5.8229 -1.8218 0 0
M  V30 5 S 4.4892 -2.5918 0 0
M  V30 6 C 3.1555 -1.8218 0 0 CFG=2
M  V30 7 C 1.6155 -1.8218 0 0 CFG=1
M  V30 8 C 1.6155 -0.2818 0 0
M  V30 9 C 4.4892 2.0282 0 0
M  V30 10 O 5.8229 2.7982 0 0
M  V30 11 O 3.1555 2.7982 0 0
M  V30 12 O 0.5266 0.8071 0 0
M  V30 13 N 0.5266 -2.9108 0 0
M  V30 14 C -0.961 -2.5122 0 0
M  V30 15 O -1.3595 -1.0247 0 0
M  V30 16 C -2.0499 -3.6011 0 0
M  V30 17 C -3.5374 -3.2026 0 0
M  V30 18 C -4.6264 -4.2915 0 0
M  V30 19 C -6.1139 -3.8929 0 0
M  V30 20 C -6.5125 -2.4054 0 0
M  V30 21 C -5.4235 -1.3165 0 0
M  V30 22 C -3.936 -1.715 0 0
M  V30 23 O -1.6513 -5.0887 0 0
M  V30 24 C 7.1566 0.4882 0 0
M  V30 25 C 7.1566 2.0282 0 0
M  V30 END ATOM
M  V30 BEGIN BOND
M  V30 1 1 1 2
M  V30 2 2 2 3
M  V30 3 1 3 4
M  V30 4 1 4 5
M  V30 5 1 6 5
M  V30 6 1 6 1 CFG=3
M  V30 7 1 6 7
M  V30 8 1 7 8
M  V30 9 1 1 8
M  V30 10 1 9 10
M  V30 11 2 9 11
M  V30 12 1 2 9
M  V30 13 2 8 12
M  V30 14 2 14 15
M  V30 15 1 14 16
M  V30 16 2 17 18
M  V30 17 1 18 19
M  V30 18 2 19 20
M  V30 19 1 20 21
M  V30 20 2 21 22
M  V30 21 1 17 22
M  V30 22 1 16 17
M  V30 23 1 16 23
M  V30 24 1 13 14
M  V30 25 1 7 13 CFG=3
M  V30 26 2 24 25
M  V30 27 1 3 24
M  V30 END BOND
M  V30 BEGIN COLLECTION
M  V30 MDLV30/STEREL1 ATOMS=(1 7)
M  V30 END COLLECTION
M  V30 END CTAB
M  END
>  <type>
systematic

$$$$
5-[[2-(5-Benzoyl-1H-benzotriazol-1-yl)-2-oxoethyl]amino]-2-hydroxybenzoic acid
  Mrv2401 11022400022D          

 31 34  0  0  0  0            999 V2000
   -3.3292   -4.2338    0.0000 C   0  0  0  0  0  0  0  0  0  0  0  0
   -3.5842   -5.0184    0.0000 C   0  0  0  0  0  0  0  0  0  0  0  0
   -4.3912   -5.1900    0.0000 O   0  0  0  0  0  0  0  0  0  0  0  0
   -3.0321   -5.6315    0.0000 O   0  0  0  0  0  0  0  0  0  0  0  0
   -3.8813   -3.6207    0.0000 C   0  0  0  0  0  0  0  0  0  0  0  0
   -3.6263   -2.8361    0.0000 C   0  0  0  0  0  0  0  0  0  0  0  0
   -2.8194   -2.6646    0.0000 C   0  0  0  0  0  0  0  0  0  0  0  0
   -2.2673   -3.2777    0.0000 C   0  0  0  0  0  0  0  0  0  0  0  0
   -2.5223   -4.0623    0.0000 C   0  0  0  0  0  0  0  0  0  0  0  0
   -4.6882   -3.7923    0.0000 O   0  0  0  0  0  0  0  0  0  0  0  0
   -1.4604   -3.1062    0.0000 N   0  0  0  0  0  0  0  0  0  0  0  0
   -1.2054   -2.3215    0.0000 C   0  0  0  0  0  0  0  0  0  0  0  0
   -0.3984   -2.1500    0.0000 C   0  0  0  0  0  0  0  0  0  0  0  0
    0.1536   -2.7631    0.0000 O   0  0  0  0  0  0  0  0  0  0  0  0
    0.6411   -1.1104    0.0000 C   0  0  0  0  0  0  0  0  0  0  0  0
   -0.1435   -1.3654    0.0000 N   0  0  0  0  0  0  0  0  0  0  0  0
   -0.6284   -0.6979    0.0000 N   0  0  0  0  0  0  0  0  0  0  0  0
   -0.1435   -0.0305    0.0000 N   0  0  0  0  0  0  0  0  0  0  0  0
    0.6411   -0.2854    0.0000 C   0  0  0  0  0  0  0  0  0  0  0  0
    1.3556    0.1271    0.0000 C   0  0  0  0  0  0  0  0  0  0  0  0
    2.0701   -0.2854    0.0000 C   0  0  0  0  0  0  0  0  0  0  0  0
    2.0701   -1.1104    0.0000 C   0  0  0  0  0  0  0  0  0  0  0  0
    1.3556   -1.5229    0.0000 C   0  0  0  0  0  0  0  0  0  0  0  0
    2.7845    0.1271    0.0000 C   0  0  0  0  0  0  0  0  0  0  0  0
    3.4990   -0.2854    0.0000 O   0  0  0  0  0  0  0  0  0  0  0  0
    2.7845    0.9521    0.0000 C   0  0  0  0  0  0  0  0  0  0  0  0
    2.0701    1.3646    0.0000 C   0  0  0  0  0  0  0  0  0  0  0  0
    2.0701    2.1896    0.0000 C   0  0  0  0  0  0  0  0  0  0  0  0
    2.7845    2.6021    0.0000 C   0  0  0  0  0  0  0  0  0  0  0  0
    3.4990    2.1896    0.0000 C   0  0  0  0  0  0  0  0  0  0  0  0
    3.4990    1.3646    0.0000 C   0  0  0  0  0  0  0  0  0  0  0  0
  1  2  1  0  0  0  0
  2  3  1  0  0  0  0
  2  4  2  0  0  0  0
  1  5  2  0  0  0  0
  5  6  1  0  0  0  0
  6  7  2  0  0  0  0
  7  8  1  0  0  0  0
  8  9  2  0  0  0  0
  1  9  1  0  0  0  0
  5 10  1  0  0  0  0
 12 13  1  0  0  0  0
 13 14  2  0  0  0  0
 15 16  1  0  0  0  0
 16 17  1  0  0  0  0
 17 18  2  0  0  0  0
 18 19  1  0  0  0  0
 15 19  2  0  0  0  0
 19 20  1  0  0  0  0
 20 21  2  0  0  0  0
 21 22  1  0  0  0  0
 22 23  2  0  0  0  0
 15 23  1  0  0  0  0
 24 25  2  0  0  0  0
 24 26  1  0  0  0  0
 26 27  2  0  0  0  0
 27 28  1  0  0  0  0
 28 29  2  0  0  0  0
 29 30  1  0  0  0  0
 30 31  2  0  0  0  0
 26 31  1  0  0  0  0
 21 24  1  0  0  0  0
 13 16  1  0  0  0  0
 11 12  1  0  0  0  0
  8 11  1  0  0  0  0
M  END
>  <type>
systematic

$$$$
5-[(Benzoylsulfonyl)amino]-4-chloro-2-[(phenylmethylene)amino]benzoic acid
  Mrv2401 11022400022D          

 30 32  0  0  0  0            999 V2000
    2.1434   -2.8875    0.0000 C   0  0  0  0  0  0  0  0  0  0  0  0
    2.1434   -2.0625    0.0000 C   0  0  0  0  0  0  0  0  0  0  0  0
    1.4289   -1.6500    0.0000 O   0  0  0  0  0  0  0  0  0  0  0  0
    2.8579   -1.6500    0.0000 O   0  0  0  0  0  0  0  0  0  0  0  0
    2.8579   -3.3000    0.0000 C   0  0  0  0  0  0  0  0  0  0  0  0
    2.8579   -4.1250    0.0000 C   0  0  0  0  0  0  0  0  0  0  0  0
    2.1434   -4.5375    0.0000 C   0  0  0  0  0  0  0  0  0  0  0  0
    1.4289   -4.1250    0.0000 C   0  0  0  0  0  0  0  0  0  0  0  0
    1.4289   -3.3000    0.0000 C   0  0  0  0  0  0  0  0  0  0  0  0
    3.5724   -2.8875    0.0000 N   0  0  0  0  0  0  0  0  0  0  0  0
    3.5724   -2.0625    0.0000 C   0  0  0  0  0  0  0  0  0  0  0  0
    4.2868   -1.6500    0.0000 C   0  0  0  0  0  0  0  0  0  0  0  0
    4.2868   -0.8250    0.0000 C   0  0  0  0  0  0  0  0  0  0  0  0
    5.0013   -0.4125    0.0000 C   0  0  0  0  0  0  0  0  0  0  0  0
    5.7158   -0.8250    0.0000 C   0  0  0  0  0  0  0  0  0  0  0  0
    5.7158   -1.6500    0.0000 C   0  0  0  0  0  0  0  0  0  0  0  0
    5.0013   -2.0625    0.0000 C   0  0  0  0  0  0  0  0  0  0  0  0
    2.1434   -5.3625    0.0000 Cl  0  0  0  0  0  0  0  0  0  0  0  0
    0.7145   -4.5375    0.0000 N   0  0  0  0  0  0  0  0  0  0  0  0
    0.7145   -5.3625    0.0000 S   0  0  0  0  0  0  0  0  0  0  0  0
   -0.1105   -5.3625    0.0000 O   0  0  0  0  0  0  0  0  0  0  0  0
    1.5395   -5.3625    0.0000 O   0  0  0  0  0  0  0  0  0  0  0  0
    0.7145   -6.1875    0.0000 C   0  0  0  0  0  0  0  0  0  0  0  0
    1.4289   -6.6000    0.0000 O   0  0  0  0  0  0  0  0  0  0  0  0
    0.0000   -6.6000    0.0000 C   0  0  0  0  0  0  0  0  0  0  0  0
   -0.0000   -7.4250    0.0000 C   0  0  0  0  0  0  0  0  0  0  0  0
   -0.7145   -7.8375    0.0000 C   0  0  0  0  0  0  0  0  0  0  0  0
   -1.4289   -7.4250    0.0000 C   0  0  0  0  0  0  0  0  0  0  0  0
   -1.4289   -6.6000    0.0000 C   0  0  0  0  0  0  0  0  0  0  0  0
   -0.7145   -6.1875    0.0000 C   0  0  0  0  0  0  0  0  0  0  0  0
  1  2  1  0  0  0  0
  2  3  1  0  0  0  0
  2  4  2  0  0  0  0
  1  5  2  0  0  0  0
  5  6  1  0  0  0  0
  6  7  2  0  0  0  0
  7  8  1  0  0  0  0
  8  9  2  0  0  0  0
  1  9  1  0  0  0  0
 12 13  2  0  0  0  0
 13 14  1  0  0  0  0
 14 15  2  0  0  0  0
 15 16  1  0  0  0  0
 16 17  2  0  0  0  0
 12 17  1  0  0  0  0
 11 12  1  0  0  0  0
 10 11  2  0  0  0  0
 10  5  1  4  0  0  0
  7 18  1  0  0  0  0
 20 21  2  0  0  0  0
 20 22  2  0  0  0  0
 23 24  2  0  0  0  0
 23 25  1  0  0  0  0
 25 26  2  0  0  0  0
 26 27  1  0  0  0  0
 27 28  2  0  0  0  0
 28 29  1  0  0  0  0
 29 30  2  0  0  0  0
 25 30  1  0  0  0  0
 20 23  1  0  0  0  0
 19 20  1  0  0  0  0
  8 19  1  0  0  0  0
M  END
>  <type>
systematic

$$$$
2,3-Dihydro-2-[[2-(1H-indol-3-yl)-2-oxoacetyl]amino]-1H-indene-2-carboxylic acid
  Mrv2401 11022400042D          

 26 29  0  0  0  0            999 V2000
   -0.9851    1.8818    0.0000 C   0  0  0  0  0  0  0  0  0  0  0  0
   -1.6474    2.3737    0.0000 C   0  0  0  0  0  0  0  0  0  0  0  0
   -2.3199    1.8958    0.0000 C   0  0  0  0  0  0  0  0  0  0  0  0
   -3.1250    2.0757    0.0000 C   0  0  0  0  0  0  0  0  0  0  0  0
   -3.6835    1.4685    0.0000 C   0  0  0  0  0  0  0  0  0  0  0  0
   -3.4368    0.6812    0.0000 C   0  0  0  0  0  0  0  0  0  0  0  0
   -2.6316    0.5012    0.0000 C   0  0  0  0  0  0  0  0  0  0  0  0
   -2.0732    1.1085    0.0000 C   0  0  0  0  0  0  0  0  0  0  0  0
   -1.2482    1.0999    0.0000 C   0  0  0  0  0  0  0  0  0  0  0  0
   -0.4203    2.4832    0.0000 C   0  0  0  0  0  0  0  0  0  0  0  0
    0.3829    2.2948    0.0000 O   0  0  0  0  0  0  0  0  0  0  0  0
   -0.6588    3.2730    0.0000 O   0  0  0  0  0  0  0  0  0  0  0  0
   -0.1781    1.7103    0.0000 N   0  0  0  0  0  0  0  0  0  0  0  0
    0.0768    0.9256    0.0000 C   0  0  0  0  0  0  0  0  0  0  0  0
   -0.4752    0.3126    0.0000 O   0  0  0  0  0  0  0  0  0  0  0  0
    0.8838    0.7541    0.0000 C   0  0  0  0  0  0  0  0  0  0  0  0
    1.4358    1.3672    0.0000 O   0  0  0  0  0  0  0  0  0  0  0  0
    0.6538   -0.6979    0.0000 C   0  0  0  0  0  0  0  0  0  0  0  0
    1.1387   -0.0305    0.0000 C   0  0  0  0  0  0  0  0  0  0  0  0
    1.9233   -0.2854    0.0000 C   0  0  0  0  0  0  0  0  0  0  0  0
    2.6378    0.1271    0.0000 C   0  0  0  0  0  0  0  0  0  0  0  0
    3.3523   -0.2854    0.0000 C   0  0  0  0  0  0  0  0  0  0  0  0
    3.3523   -1.1104    0.0000 C   0  0  0  0  0  0  0  0  0  0  0  0
    2.6378   -1.5229    0.0000 C   0  0  0  0  0  0  0  0  0  0  0  0
    1.9233   -1.1104    0.0000 C   0  0  0  0  0  0  0  0  0  0  0  0
    1.1387   -1.3654    0.0000 N   0  0  0  0  0  0  0  0  0  0  0  0
  1  2  1  0  0  0  0
  2  3  1  0  0  0  0
  3  4  2  0  0  0  0
  4  5  1  0  0  0  0
  5  6  2  0  0  0  0
  6  7  1  0  0  0  0
  7  8  2  0  0  0  0
  3  8  1  0  0  0  0
  8  9  1  0  0  0  0
  1  9  1  0  0  0  0
 10 11  1  0  0  0  0
 10 12  2  0  0  0  0
  1 10  1  0  0  0  0
 14 15  2  0  0  0  0
 14 16  1  0  0  0  0
 16 17  2  0  0  0  0
 18 19  2  0  0  0  0
 19 20  1  0  0  0  0
 20 21  1  0  0  0  0
 21 22  2  0  0  0  0
 22 23  1  0  0  0  0
 23 24  2  0  0  0  0
 24 25  1  0  0  0  0
 20 25  2  0  0  0  0
 25 26  1  0  0  0  0
 18 26  1  0  0  0  0
 16 19  1  0  0  0  0
 13 14  1  0  0  0  0
  1 13  1  0  0  0  0
M  END
>  <type>
systematic

$$$$
5-Thia-1-azabicyclo[4.2.0]oct-2-ene-2-carboxylic acid, 7-[(hydroxyphenylacetyl)amino]-3-[(methoxyimino)methyl]-8-oxo-,[6 R-[6α,7β(R*)]]-
  Mrv2401 11022400062D          

  0  0  0     0  0            999 V3000
M  V30 BEGIN CTAB
M  V30 COUNTS 27 29 0 0 1
M  V30 BEGIN ATOM
M  V30 1 N 3.1555 -0.2818 0 0
M  V30 2 C 4.4892 0.4882 0 0
M  V30 3 C 5.8229 -0.2818 0 0
M  V30 4 C 5.8229 -1.8218 0 0
M  V30 5 S 4.4892 -2.5918 0 0
M  V30 6 C 3.1555 -1.8218 0 0 CFG=2
M  V30 7 C 1.6155 -1.8218 0 0 CFG=1
M  V30 8 C 1.6155 -0.2818 0 0
M  V30 9 C 4.4892 2.0282 0 0
M  V30 10 O 5.8229 2.7982 0 0
M  V30 11 O 3.1555 2.7982 0 0
M  V30 12 O 0.5266 0.8071 0 0
M  V30 13 C 7.1566 0.4882 0 0
M  V30 14 N 8.4902 -0.2818 0 0
M  V30 15 O 9.8239 0.4882 0 0
M  V30 16 C 11.1576 -0.2818 0 0
M  V30 17 N 0.5266 -2.9108 0 0
M  V30 18 C -0.961 -2.5122 0 0
M  V30 19 O -1.3595 -1.0247 0 0
M  V30 20 C -2.0499 -3.6011 0 0
M  V30 21 C -3.5374 -3.2026 0 0
M  V30 22 C -4.6264 -4.2915 0 0
M  V30 23 C -6.1139 -3.8929 0 0
M  V30 24 C -6.5125 -2.4054 0 0
M  V30 25 C -5.4235 -1.3165 0 0
M  V30 26 C -3.936 -1.715 0 0
M  V30 27 O -1.6513 -5.0887 0 0
M  V30 END ATOM
M  V30 BEGIN BOND
M  V30 1 1 1 2
M  V30 2 2 2 3
M  V30 3 1 3 4
M  V30 4 1 4 5
M  V30 5 1 6 5
M  V30 6 1 6 1 CFG=3
M  V30 7 1 6 7
M  V30 8 1 7 8
M  V30 9 1 1 8
M  V30 10 1 9 10
M  V30 11 2 9 11
M  V30 12 1 2 9
M  V30 13 2 8 12
M  V30 14 1 15 16
M  V30 15 1 14 15
M  V30 16 2 13 14
M  V30 17 1 13 3 CFG=2
M  V30 18 2 18 19
M  V30 19 1 18 20
M  V30 20 2 21 22
M  V30 21 1 22 23
M  V30 22 2 23 24
M  V30 23 1 24 25
M  V30 24 2 25 26
M  V30 25 1 21 26
M  V30 26 1 20 21
M  V30 27 1 20 27
M  V30 28 1 17 18
M  V30 29 1 7 17 CFG=3
M  V30 END BOND
M  V30 BEGIN COLLECTION
M  V30 MDLV30/STEREL1 ATOMS=(1 7)
M  V30 END COLLECTION
M  V30 END CTAB
M  END
>  <type>
systematic

$$$$
5-Thia-1-azabicyclo[4.2.0]oct-2-ene-2-carboxylic acid, 7-[(hydroxyphenylacetyl)amino]-3-[(methoxyimino)methyl]-8-oxo-,[6 R-(6α,7β)]-
  Mrv2401 11022413092D          

 27 29  0  0  1  0            999 V2000
    1.6905   -0.1510    0.0000 N   0  0  0  0  0  0  0  0  0  0  0  0
    2.4049    0.2615    0.0000 C   0  0  0  0  0  0  0  0  0  0  0  0
    3.1194   -0.1510    0.0000 C   0  0  0  0  0  0  0  0  0  0  0  0
    3.1194   -0.9760    0.0000 C   0  0  0  0  0  0  0  0  0  0  0  0
    2.4049   -1.3885    0.0000 S   0  0  0  0  0  0  0  0  0  0  0  0
    1.6905   -0.9760    0.0000 C   0  0  2  0  0  0  0  0  0  0  0  0
    0.8655   -0.9760    0.0000 C   0  0  2  0  0  0  0  0  0  0  0  0
    0.8655   -0.1510    0.0000 C   0  0  0  0  0  0  0  0  0  0  0  0
    2.4049    1.0865    0.0000 C   0  0  0  0  0  0  0  0  0  0  0  0
    3.1194    1.4990    0.0000 O   0  0  0  0  0  0  0  0  0  0  0  0
    1.6905    1.4990    0.0000 O   0  0  0  0  0  0  0  0  0  0  0  0
    0.2821    0.4324    0.0000 O   0  0  0  0  0  0  0  0  0  0  0  0
    3.8339    0.2615    0.0000 C   0  0  0  0  0  0  0  0  0  0  0  0
    4.5483   -0.1510    0.0000 N   0  0  0  0  0  0  0  0  0  0  0  0
    5.2628    0.2615    0.0000 O   0  0  0  0  0  0  0  0  0  0  0  0
    5.9773   -0.1510    0.0000 C   0  0  0  0  0  0  0  0  0  0  0  0
    0.2821   -1.5593    0.0000 N   0  0  0  0  0  0  0  0  0  0  0  0
   -0.5148   -1.3458    0.0000 C   0  0  0  0  0  0  0  0  0  0  0  0
   -0.7283   -0.5489    0.0000 O   0  0  0  0  0  0  0  0  0  0  0  0
   -1.0982   -1.9292    0.0000 C   0  0  0  0  0  0  0  0  0  0  0  0
   -1.8950   -1.7157    0.0000 C   0  0  0  0  0  0  0  0  0  0  0  0
   -2.4784   -2.2990    0.0000 C   0  0  0  0  0  0  0  0  0  0  0  0
   -3.2753   -2.0855    0.0000 C   0  0  0  0  0  0  0  0  0  0  0  0
   -3.4888   -1.2886    0.0000 C   0  0  0  0  0  0  0  0  0  0  0  0
   -2.9055   -0.7052    0.0000 C   0  0  0  0  0  0  0  0  0  0  0  0
   -2.1086   -0.9188    0.0000 C   0  0  0  0  0  0  0  0  0  0  0  0
   -0.8846   -2.7261    0.0000 O   0  0  0  0  0  0  0  0  0  0  0  0
  1  2  1  0  0  0  0
  2  3  2  0  0  0  0
  3  4  1  0  0  0  0
  4  5  1  0  0  0  0
  6  5  1  0  0  0  0
  6  1  1  6  0  0  0
  6  7  1  0  0  0  0
  7  8  1  0  0  0  0
  1  8  1  0  0  0  0
  9 10  1  0  0  0  0
  9 11  2  0  0  0  0
  2  9  1  0  0  0  0
  8 12  2  0  0  0  0
 15 16  1  0  0  0  0
 14 15  1  0  0  0  0
 13 14  2  0  0  0  0
 13  3  1  4  0  0  0
 18 19  2  0  0  0  0
 18 20  1  0  0  0  0
 21 22  2  0  0  0  0
 22 23  1  0  0  0  0
 23 24  2  0  0  0  0
 24 25  1  0  0  0  0
 25 26  2  0  0  0  0
 21 26  1  0  0  0  0
 20 21  1  0  0  0  0
 20 27  1  0  0  0  0
 17 18  1  0  0  0  0
  7 17  1  1  0  0  0
M  END
>  <type>
systematic

$$$$
5-Thia-1-azabicyclo[4.2.0]oct-2-ene-2-carboxylic acid, 7-[(hydroxy-2-thienylacetyl)amino]-4-methyl-8-oxo-, [6 R-(6α,7β)]-
  Mrv2401 11022413102D          

 23 25  0  0  1  0            999 V2000
    1.6905   -0.1510    0.0000 N   0  0  0  0  0  0  0  0  0  0  0  0
    2.4049    0.2615    0.0000 C   0  0  0  0  0  0  0  0  0  0  0  0
    3.1194   -0.1510    0.0000 C   0  0  0  0  0  0  0  0  0  0  0  0
    3.1194   -0.9760    0.0000 C   0  0  0  0  0  0  0  0  0  0  0  0
    2.4049   -1.3885    0.0000 S   0  0  0  0  0  0  0  0  0  0  0  0
    1.6905   -0.9760    0.0000 C   0  0  2  0  0  0  0  0  0  0  0  0
    0.8655   -0.9760    0.0000 C   0  0  2  0  0  0  0  0  0  0  0  0
    0.8655   -0.1510    0.0000 C   0  0  0  0  0  0  0  0  0  0  0  0
    2.4049    1.0865    0.0000 C   0  0  0  0  0  0  0  0  0  0  0  0
    3.1194    1.4990    0.0000 O   0  0  0  0  0  0  0  0  0  0  0  0
    1.6905    1.4990    0.0000 O   0  0  0  0  0  0  0  0  0  0  0  0
    0.2821    0.4324    0.0000 O   0  0  0  0  0  0  0  0  0  0  0  0
    3.8339   -1.3885    0.0000 C   0  0  0  0  0  0  0  0  0  0  0  0
    0.2821   -1.5593    0.0000 N   0  0  0  0  0  0  0  0  0  0  0  0
   -0.5148   -1.3458    0.0000 C   0  0  0  0  0  0  0  0  0  0  0  0
   -0.7283   -0.5489    0.0000 O   0  0  0  0  0  0  0  0  0  0  0  0
   -1.0982   -1.9292    0.0000 C   0  0  0  0  0  0  0  0  0  0  0  0
   -2.1907   -0.9455    0.0000 S   0  0  0  0  0  0  0  0  0  0  0  0
   -1.8950   -1.7157    0.0000 C   0  0  0  0  0  0  0  0  0  0  0  0
   -2.5362   -2.2348    0.0000 C   0  0  0  0  0  0  0  0  0  0  0  0
   -3.2281   -1.7855    0.0000 C   0  0  0  0  0  0  0  0  0  0  0  0
   -3.0146   -0.9886    0.0000 C   0  0  0  0  0  0  0  0  0  0  0  0
   -0.8846   -2.7261    0.0000 O   0  0  0  0  0  0  0  0  0  0  0  0
  1  2  1  0  0  0  0
  2  3  2  0  0  0  0
  3  4  1  0  0  0  0
  4  5  1  0  0  0  0
  6  5  1  0  0  0  0
  6  1  1  6  0  0  0
  6  7  1  0  0  0  0
  7  8  1  0  0  0  0
  1  8  1  0  0  0  0
  9 10  1  0  0  0  0
  9 11  2  0  0  0  0
  2  9  1  0  0  0  0
  8 12  2  0  0  0  0
  4 13  1  0  0  0  0
 15 16  2  0  0  0  0
 15 17  1  0  0  0  0
 18 19  1  0  0  0  0
 19 20  2  0  0  0  0
 20 21  1  0  0  0  0
 21 22  2  0  0  0  0
 18 22  1  0  0  0  0
 17 19  1  0  0  0  0
 17 23  1  0  0  0  0
 14 15  1  0  0  0  0
  7 14  1  1  0  0  0
M  END
>  <type>
systematic

$$$$
3-Amino-4-[2-[3-(aminosulfonyl)-4-chlorobenzoyl]hydrazinyl]benzoic acid
  Mrv2401 11022413112D          

 25 26  0  0  0  0            999 V2000
    2.8579   -2.4750    0.0000 C   0  0  0  0  0  0  0  0  0  0  0  0
    2.8579   -1.6500    0.0000 C   0  0  0  0  0  0  0  0  0  0  0  0
    2.1434   -1.2375    0.0000 O   0  0  0  0  0  0  0  0  0  0  0  0
    3.5724   -1.2375    0.0000 O   0  0  0  0  0  0  0  0  0  0  0  0
    3.5724   -2.8875    0.0000 C   0  0  0  0  0  0  0  0  0  0  0  0
    3.5724   -3.7125    0.0000 C   0  0  0  0  0  0  0  0  0  0  0  0
    2.8579   -4.1250    0.0000 C   0  0  0  0  0  0  0  0  0  0  0  0
    2.1434   -3.7125    0.0000 C   0  0  0  0  0  0  0  0  0  0  0  0
    2.1434   -2.8875    0.0000 C   0  0  0  0  0  0  0  0  0  0  0  0
    2.8579   -4.9500    0.0000 N   0  0  0  0  0  0  0  0  0  0  0  0
    2.1434   -5.3625    0.0000 N   0  0  0  0  0  0  0  0  0  0  0  0
    2.1434   -6.1875    0.0000 C   0  0  0  0  0  0  0  0  0  0  0  0
    2.8579   -6.6000    0.0000 O   0  0  0  0  0  0  0  0  0  0  0  0
    1.4289   -6.6000    0.0000 C   0  0  0  0  0  0  0  0  0  0  0  0
    1.4289   -7.4250    0.0000 C   0  0  0  0  0  0  0  0  0  0  0  0
    0.7145   -7.8375    0.0000 C   0  0  0  0  0  0  0  0  0  0  0  0
    0.0000   -7.4250    0.0000 C   0  0  0  0  0  0  0  0  0  0  0  0
    0.0000   -6.6000    0.0000 C   0  0  0  0  0  0  0  0  0  0  0  0
    0.7145   -6.1875    0.0000 C   0  0  0  0  0  0  0  0  0  0  0  0
   -0.7145   -7.8375    0.0000 Cl  0  0  0  0  0  0  0  0  0  0  0  0
    0.7145   -8.6625    0.0000 S   0  0  0  0  0  0  0  0  0  0  0  0
    0.7145   -9.4875    0.0000 O   0  0  0  0  0  0  0  0  0  0  0  0
   -0.1105   -8.6625    0.0000 O   0  0  0  0  0  0  0  0  0  0  0  0
    1.5395   -8.6625    0.0000 N   0  0  0  0  0  0  0  0  0  0  0  0
    4.2868   -4.1250    0.0000 N   0  0  0  0  0  0  0  0  0  0  0  0
  1  2  1  0  0  0  0
  2  3  1  0  0  0  0
  2  4  2  0  0  0  0
  1  5  2  0  0  0  0
  5  6  1  0  0  0  0
  6  7  2  0  0  0  0
  7  8  1  0  0  0  0
  8  9  2  0  0  0  0
  1  9  1  0  0  0  0
 10 11  1  0  0  0  0
 12 13  2  0  0  0  0
 12 14  1  0  0  0  0
 14 15  2  0  0  0  0
 15 16  1  0  0  0  0
 16 17  2  0  0  0  0
 17 18  1  0  0  0  0
 18 19  2  0  0  0  0
 14 19  1  0  0  0  0
 17 20  1  0  0  0  0
 21 22  2  0  0  0  0
 21 23  2  0  0  0  0
 21 24  1  0  0  0  0
 16 21  1  0  0  0  0
 11 12  1  0  0  0  0
  7 10  1  0  0  0  0
  6 25  1  0  0  0  0
M  END
>  <type>
systematic

$$$$
3-[[2-(1H-Benzotriazol-1-yl)-2-oxoethyl]imino]-6-carboxy-2,3-dihydro-1H-indene-1-acetic acid
  Mrv2401 11022413122D          

 29 32  0  0  0  0            999 V2000
   -3.9754   -4.5582    0.0000 C   0  0  0  0  0  0  0  0  0  0  0  0
   -3.7205   -5.3428    0.0000 C   0  0  0  0  0  0  0  0  0  0  0  0
   -2.9135   -5.5144    0.0000 O   0  0  0  0  0  0  0  0  0  0  0  0
   -4.2725   -5.9559    0.0000 O   0  0  0  0  0  0  0  0  0  0  0  0
   -2.6029   -4.0314    0.0000 C   0  0  0  0  0  0  0  0  0  0  0  0
   -3.4234   -3.9451    0.0000 C   0  0  0  0  0  0  0  0  0  0  0  0
   -3.5949   -3.1381    0.0000 C   0  0  0  0  0  0  0  0  0  0  0  0
   -4.3094   -2.7256    0.0000 C   0  0  0  0  0  0  0  0  0  0  0  0
   -4.3094   -1.9006    0.0000 C   0  0  0  0  0  0  0  0  0  0  0  0
   -3.5949   -1.4881    0.0000 C   0  0  0  0  0  0  0  0  0  0  0  0
   -2.8804   -1.9006    0.0000 C   0  0  0  0  0  0  0  0  0  0  0  0
   -2.8804   -2.7256    0.0000 C   0  0  0  0  0  0  0  0  0  0  0  0
   -2.2673   -3.2777    0.0000 C   0  0  0  0  0  0  0  0  0  0  0  0
   -5.0238   -1.4881    0.0000 C   0  0  0  0  0  0  0  0  0  0  0  0
   -5.0238   -0.6631    0.0000 O   0  0  0  0  0  0  0  0  0  0  0  0
   -5.7383   -1.9006    0.0000 O   0  0  0  0  0  0  0  0  0  0  0  0
   -1.4604   -3.1062    0.0000 N   0  0  0  0  0  0  0  0  0  0  0  0
   -1.2054   -2.3215    0.0000 C   0  0  0  0  0  0  0  0  0  0  0  0
   -0.3984   -2.1500    0.0000 C   0  0  0  0  0  0  0  0  0  0  0  0
    0.1536   -2.7631    0.0000 O   0  0  0  0  0  0  0  0  0  0  0  0
    0.6411   -1.1104    0.0000 C   0  0  0  0  0  0  0  0  0  0  0  0
   -0.1435   -1.3654    0.0000 N   0  0  0  0  0  0  0  0  0  0  0  0
   -0.6284   -0.6979    0.0000 N   0  0  0  0  0  0  0  0  0  0  0  0
   -0.1435   -0.0305    0.0000 N   0  0  0  0  0  0  0  0  0  0  0  0
    0.6411   -0.2854    0.0000 C   0  0  0  0  0  0  0  0  0  0  0  0
    1.3556    0.1271    0.0000 C   0  0  0  0  0  0  0  0  0  0  0  0
    2.0701   -0.2854    0.0000 C   0  0  0  0  0  0  0  0  0  0  0  0
    2.0701   -1.1104    0.0000 C   0  0  0  0  0  0  0  0  0  0  0  0
    1.3556   -1.5229    0.0000 C   0  0  0  0  0  0  0  0  0  0  0  0
  1  2  1  0  0  0  0
  2  3  1  0  0  0  0
  2  4  2  0  0  0  0
  5  6  1  0  0  0  0
  6  7  1  0  0  0  0
  7  8  2  0  0  0  0
  8  9  1  0  0  0  0
  9 10  2  0  0  0  0
 10 11  1  0  0  0  0
 11 12  2  0  0  0  0
  7 12  1  0  0  0  0
 12 13  1  0  0  0  0
  5 13  1  0  0  0  0
 14 15  1  0  0  0  0
 14 16  2  0  0  0  0
  9 14  1  0  0  0  0
 18 19  1  0  0  0  0
 19 20  2  0  0  0  0
 21 22  1  0  0  0  0
 22 23  1  0  0  0  0
 23 24  2  0  0  0  0
 24 25  1  0  0  0  0
 21 25  2  0  0  0  0
 25 26  1  0  0  0  0
 26 27  2  0  0  0  0
 27 28  1  0  0  0  0
 28 29  2  0  0  0  0
 21 29  1  0  0  0  0
 19 22  1  0  0  0  0
 17 18  1  4  0  0  0
 13 17  2  0  0  0  0
  1  6  1  0  0  0  0
M  END
>  <type>
systematic

$$$$
5-Thia-1-azabicyclo[4.2.0]oct-2-ene-2-carboxylic acid, 7-[(hydroxy-2-thienylacetyl)amino]-3-methyl-8-oxo-, [6 R-(6α,7β)]-
  Mrv2401 11022413152D          

 23 25  0  0  1  0            999 V2000
    1.6905   -0.1510    0.0000 N   0  0  0  0  0  0  0  0  0  0  0  0
    2.4049    0.2615    0.0000 C   0  0  0  0  0  0  0  0  0  0  0  0
    3.1194   -0.1510    0.0000 C   0  0  0  0  0  0  0  0  0  0  0  0
    3.1194   -0.9760    0.0000 C   0  0  0  0  0  0  0  0  0  0  0  0
    2.4049   -1.3885    0.0000 S   0  0  0  0  0  0  0  0  0  0  0  0
    1.6905   -0.9760    0.0000 C   0  0  2  0  0  0  0  0  0  0  0  0
    0.8655   -0.9760    0.0000 C   0  0  2  0  0  0  0  0  0  0  0  0
    0.8655   -0.1510    0.0000 C   0  0  0  0  0  0  0  0  0  0  0  0
    2.4049    1.0865    0.0000 C   0  0  0  0  0  0  0  0  0  0  0  0
    3.1194    1.4990    0.0000 O   0  0  0  0  0  0  0  0  0  0  0  0
    1.6905    1.4990    0.0000 O   0  0  0  0  0  0  0  0  0  0  0  0
    0.2821    0.4324    0.0000 O   0  0  0  0  0  0  0  0  0  0  0  0
    3.8339    0.2615    0.0000 C   0  0  0  0  0  0  0  0  0  0  0  0
    0.2821   -1.5593    0.0000 N   0  0  0  0  0  0  0  0  0  0  0  0
   -0.5148   -1.3458    0.0000 C   0  0  0  0  0  0  0  0  0  0  0  0
   -0.7283   -0.5489    0.0000 O   0  0  0  0  0  0  0  0  0  0  0  0
   -1.0982   -1.9292    0.0000 C   0  0  0  0  0  0  0  0  0  0  0  0
   -2.1907   -0.9455    0.0000 S   0  0  0  0  0  0  0  0  0  0  0  0
   -1.8950   -1.7157    0.0000 C   0  0  0  0  0  0  0  0  0  0  0  0
   -2.5362   -2.2348    0.0000 C   0  0  0  0  0  0  0  0  0  0  0  0
   -3.2281   -1.7855    0.0000 C   0  0  0  0  0  0  0  0  0  0  0  0
   -3.0146   -0.9886    0.0000 C   0  0  0  0  0  0  0  0  0  0  0  0
   -0.8846   -2.7261    0.0000 O   0  0  0  0  0  0  0  0  0  0  0  0
  1  2  1  0  0  0  0
  2  3  2  0  0  0  0
  3  4  1  0  0  0  0
  4  5  1  0  0  0  0
  6  5  1  0  0  0  0
  6  1  1  6  0  0  0
  6  7  1  0  0  0  0
  7  8  1  0  0  0  0
  1  8  1  0  0  0  0
  9 10  1  0  0  0  0
  9 11  2  0  0  0  0
  2  9  1  0  0  0  0
  8 12  2  0  0  0  0
  3 13  1  0  0  0  0
 15 16  2  0  0  0  0
 15 17  1  0  0  0  0
 18 19  1  0  0  0  0
 19 20  2  0  0  0  0
 20 21  1  0  0  0  0
 21 22  2  0  0  0  0
 18 22  1  0  0  0  0
 17 19  1  0  0  0  0
 17 23  1  0  0  0  0
 14 15  1  0  0  0  0
  7 14  1  1  0  0  0
M  END
>  <type>
systematic

$$$$
4-Thia-1-azabicyclo[3.2.0]heptane-2-carboxylic acid, 6-[(hydroxy-4-isothiazolylacetyl)amino]-3,3-dimethyl-7-oxo-, [2 S-(2α,5α,6β)]-
  Mrv2401 11022413162D          

 23 25  0  0  1  0            999 V2000
    1.7733    0.2488    0.0000 N   0  0  0  0  0  0  0  0  0  0  0  0
    2.5579    0.5038    0.0000 C   0  0  2  0  0  0  0  0  0  0  0  0
    3.0428   -0.1637    0.0000 C   0  0  0  0  0  0  0  0  0  0  0  0
    2.5579   -0.8311    0.0000 S   0  0  0  0  0  0  0  0  0  0  0  0
    1.7733   -0.5762    0.0000 C   0  0  1  0  0  0  0  0  0  0  0  0
    0.9483   -0.5762    0.0000 C   0  0  2  0  0  0  0  0  0  0  0  0
    0.9483    0.2488    0.0000 C   0  0  0  0  0  0  0  0  0  0  0  0
    2.8129    1.2884    0.0000 C   0  0  0  0  0  0  0  0  0  0  0  0
    3.6198    1.4599    0.0000 O   0  0  0  0  0  0  0  0  0  0  0  0
    2.2608    1.9015    0.0000 O   0  0  0  0  0  0  0  0  0  0  0  0
    0.3649    0.8322    0.0000 O   0  0  0  0  0  0  0  0  0  0  0  0
    3.7616    0.2413    0.0000 C   0  0  0  0  0  0  0  0  0  0  0  0
    3.7616   -0.5687    0.0000 C   0  0  0  0  0  0  0  0  0  0  0  0
    0.3649   -1.1595    0.0000 N   0  0  0  0  0  0  0  0  0  0  0  0
   -0.4319   -0.9460    0.0000 C   0  0  0  0  0  0  0  0  0  0  0  0
   -0.6455   -0.1491    0.0000 O   0  0  0  0  0  0  0  0  0  0  0  0
   -1.0153   -1.5294    0.0000 C   0  0  0  0  0  0  0  0  0  0  0  0
   -3.1452   -1.3857    0.0000 S   0  0  0  0  0  0  0  0  0  0  0  0
   -2.9317   -0.5888    0.0000 N   0  0  0  0  0  0  0  0  0  0  0  0
   -2.1079   -0.5457    0.0000 C   0  0  0  0  0  0  0  0  0  0  0  0
   -1.8122   -1.3159    0.0000 C   0  0  0  0  0  0  0  0  0  0  0  0
   -2.4533   -1.8350    0.0000 C   0  0  0  0  0  0  0  0  0  0  0  0
   -0.8018   -2.3263    0.0000 O   0  0  0  0  0  0  0  0  0  0  0  0
  2  1  1  0  0  0  0
  2  3  1  0  0  0  0
  3  4  1  0  0  0  0
  5  4  1  0  0  0  0
  5  1  1  1  0  0  0
  5  6  1  0  0  0  0
  6  7  1  0  0  0  0
  1  7  1  0  0  0  0
  8  9  1  0  0  0  0
  8 10  2  0  0  0  0
  2  8  1  1  0  0  0
  7 11  2  0  0  0  0
  3 12  1  0  0  0  0
  3 13  1  0  0  0  0
 15 16  2  0  0  0  0
 15 17  1  0  0  0  0
 18 19  1  0  0  0  0
 19 20  2  0  0  0  0
 20 21  1  0  0  0  0
 21 22  2  0  0  0  0
 18 22  1  0  0  0  0
 17 21  1  0  0  0  0
 17 23  1  0  0  0  0
 14 15  1  0  0  0  0
  6 14  1  1  0  0  0
M  END
>  <type>
systematic

$$$$
3-[[2-(4-Methoxy-1H-indol-3-yl)-2-oxoacetyl]amino]-2-thiophenecarboxylic acid
  Mrv2401 11022413172D          

 24 26  0  0  0  0            999 V2000
   -2.1411    2.5492    0.0000 S   0  0  0  0  0  0  0  0  0  0  0  0
   -1.3207    2.6355    0.0000 C   0  0  0  0  0  0  0  0  0  0  0  0
   -0.9851    1.8818    0.0000 C   0  0  0  0  0  0  0  0  0  0  0  0
   -1.5982    1.3298    0.0000 C   0  0  0  0  0  0  0  0  0  0  0  0
   -2.3127    1.7423    0.0000 C   0  0  0  0  0  0  0  0  0  0  0  0
   -0.9082    3.3499    0.0000 C   0  0  0  0  0  0  0  0  0  0  0  0
   -1.3207    4.0644    0.0000 O   0  0  0  0  0  0  0  0  0  0  0  0
   -0.0832    3.3499    0.0000 O   0  0  0  0  0  0  0  0  0  0  0  0
   -0.1781    1.7103    0.0000 N   0  0  0  0  0  0  0  0  0  0  0  0
    0.0768    0.9256    0.0000 C   0  0  0  0  0  0  0  0  0  0  0  0
   -0.4752    0.3126    0.0000 O   0  0  0  0  0  0  0  0  0  0  0  0
    0.8838    0.7541    0.0000 C   0  0  0  0  0  0  0  0  0  0  0  0
    1.4358    1.3672    0.0000 O   0  0  0  0  0  0  0  0  0  0  0  0
    0.6538   -0.6979    0.0000 C   0  0  0  0  0  0  0  0  0  0  0  0
    1.1387   -0.0305    0.0000 C   0  0  0  0  0  0  0  0  0  0  0  0
    1.9233   -0.2854    0.0000 C   0  0  0  0  0  0  0  0  0  0  0  0
    2.6378    0.1271    0.0000 C   0  0  0  0  0  0  0  0  0  0  0  0
    3.3523   -0.2854    0.0000 C   0  0  0  0  0  0  0  0  0  0  0  0
    3.3523   -1.1104    0.0000 C   0  0  0  0  0  0  0  0  0  0  0  0
    2.6378   -1.5229    0.0000 C   0  0  0  0  0  0  0  0  0  0  0  0
    1.9233   -1.1104    0.0000 C   0  0  0  0  0  0  0  0  0  0  0  0
    1.1387   -1.3654    0.0000 N   0  0  0  0  0  0  0  0  0  0  0  0
    2.6378    0.9521    0.0000 O   0  0  0  0  0  0  0  0  0  0  0  0
    3.3523    1.3646    0.0000 C   0  0  0  0  0  0  0  0  0  0  0  0
  1  2  1  0  0  0  0
  2  3  2  0  0  0  0
  3  4  1  0  0  0  0
  4  5  2  0  0  0  0
  1  5  1  0  0  0  0
  6  7  1  0  0  0  0
  6  8  2  0  0  0  0
  2  6  1  0  0  0  0
 10 11  2  0  0  0  0
 10 12  1  0  0  0  0
 12 13  2  0  0  0  0
 14 15  2  0  0  0  0
 15 16  1  0  0  0  0
 16 17  1  0  0  0  0
 17 18  2  0  0  0  0
 18 19  1  0  0  0  0
 19 20  2  0  0  0  0
 20 21  1  0  0  0  0
 16 21  2  0  0  0  0
 21 22  1  0  0  0  0
 14 22  1  0  0  0  0
 23 24  1  0  0  0  0
 17 23  1  0  0  0  0
 12 15  1  0  0  0  0
  9 10  1  0  0  0  0
  3  9  1  0  0  0  0
M  END
>  <type>
systematic

$$$$
2-(1,3-Benzodioxol-5-yl)-5-[(2-hydroxy-2-phenylacetyl)amino]benzoic acid
  Mrv2401 11022413202D          

 29 32  0  0  0  0            999 V2000
    3.4990   -0.2854    0.0000 C   0  0  0  0  0  0  0  0  0  0  0  0
    3.4990   -1.1104    0.0000 C   0  0  0  0  0  0  0  0  0  0  0  0
    4.2135   -1.5229    0.0000 O   0  0  0  0  0  0  0  0  0  0  0  0
    2.7845   -1.5229    0.0000 O   0  0  0  0  0  0  0  0  0  0  0  0
    2.7845    0.1271    0.0000 C   0  0  0  0  0  0  0  0  0  0  0  0
    2.7845    0.9521    0.0000 C   0  0  0  0  0  0  0  0  0  0  0  0
    3.4990    1.3646    0.0000 C   0  0  0  0  0  0  0  0  0  0  0  0
    4.2135    0.9521    0.0000 C   0  0  0  0  0  0  0  0  0  0  0  0
    4.2135    0.1271    0.0000 C   0  0  0  0  0  0  0  0  0  0  0  0
    4.9279    1.3646    0.0000 N   0  0  0  0  0  0  0  0  0  0  0  0
    5.6424    0.9521    0.0000 C   0  0  0  0  0  0  0  0  0  0  0  0
    5.6424    0.1271    0.0000 O   0  0  0  0  0  0  0  0  0  0  0  0
    6.3569    1.3646    0.0000 C   0  0  0  0  0  0  0  0  0  0  0  0
    7.0714    0.9521    0.0000 C   0  0  0  0  0  0  0  0  0  0  0  0
    7.7858    1.3646    0.0000 C   0  0  0  0  0  0  0  0  0  0  0  0
    8.5003    0.9521    0.0000 C   0  0  0  0  0  0  0  0  0  0  0  0
    8.5003    0.1271    0.0000 C   0  0  0  0  0  0  0  0  0  0  0  0
    7.7858   -0.2854    0.0000 C   0  0  0  0  0  0  0  0  0  0  0  0
    7.0714    0.1271    0.0000 C   0  0  0  0  0  0  0  0  0  0  0  0
    6.3569    2.1896    0.0000 O   0  0  0  0  0  0  0  0  0  0  0  0
    0.6411   -1.1104    0.0000 C   0  0  0  0  0  0  0  0  0  0  0  0
   -0.1435   -1.3654    0.0000 O   0  0  0  0  0  0  0  0  0  0  0  0
   -0.6284   -0.6979    0.0000 C   0  0  0  0  0  0  0  0  0  0  0  0
   -0.1435   -0.0305    0.0000 O   0  0  0  0  0  0  0  0  0  0  0  0
    0.6411   -0.2854    0.0000 C   0  0  0  0  0  0  0  0  0  0  0  0
    1.3556    0.1271    0.0000 C   0  0  0  0  0  0  0  0  0  0  0  0
    2.0701   -0.2854    0.0000 C   0  0  0  0  0  0  0  0  0  0  0  0
    2.0701   -1.1104    0.0000 C   0  0  0  0  0  0  0  0  0  0  0  0
    1.3556   -1.5229    0.0000 C   0  0  0  0  0  0  0  0  0  0  0  0
  1  2  1  0  0  0  0
  2  3  1  0  0  0  0
  2  4  2  0  0  0  0
  1  5  2  0  0  0  0
  5  6  1  0  0  0  0
  6  7  2  0  0  0  0
  7  8  1  0  0  0  0
  8  9  2  0  0  0  0
  1  9  1  0  0  0  0
 11 12  2  0  0  0  0
 11 13  1  0  0  0  0
 14 15  2  0  0  0  0
 15 16  1  0  0  0  0
 16 17  2  0  0  0  0
 17 18  1  0  0  0  0
 18 19  2  0  0  0  0
 14 19  1  0  0  0  0
 13 14  1  0  0  0  0
 13 20  1  0  0  0  0
 10 11  1  0  0  0  0
  8 10  1  0  0  0  0
 21 22  1  0  0  0  0
 22 23  1  0  0  0  0
 23 24  1  0  0  0  0
 24 25  1  0  0  0  0
 21 25  2  0  0  0  0
 25 26  1  0  0  0  0
 26 27  2  0  0  0  0
 27 28  1  0  0  0  0
 28 29  2  0  0  0  0
 21 29  1  0  0  0  0
  5 27  1  0  0  0  0
M  END
>  <type>
systematic

$$$$
3-(Aminosulfonyl)-4-chlorobenzoic acid 2-(4-carboxy-2-nitrophenyl)hydrazide
  Mrv2401 11022413222D          

 27 28  0  0  0  0            999 V2000
   -1.4289   -2.4750    0.0000 C   0  0  0  0  0  0  0  0  0  0  0  0
   -1.4289   -1.6500    0.0000 C   0  0  0  0  0  0  0  0  0  0  0  0
   -0.7145   -1.2375    0.0000 O   0  0  0  0  0  0  0  0  0  0  0  0
   -0.7145   -2.8875    0.0000 C   0  0  0  0  0  0  0  0  0  0  0  0
   -0.7145   -3.7125    0.0000 C   0  0  0  0  0  0  0  0  0  0  0  0
   -1.4289   -4.1250    0.0000 C   0  0  0  0  0  0  0  0  0  0  0  0
   -2.1434   -3.7125    0.0000 C   0  0  0  0  0  0  0  0  0  0  0  0
   -2.1434   -2.8875    0.0000 C   0  0  0  0  0  0  0  0  0  0  0  0
   -2.1434   -0.4125    0.0000 N   0  0  0  0  0  0  0  0  0  0  0  0
   -2.1434   -1.2375    0.0000 N   0  0  0  0  0  0  0  0  0  0  0  0
   -2.8579   -0.0000    0.0000 C   0  0  0  0  0  0  0  0  0  0  0  0
   -3.5724   -0.4125    0.0000 C   0  0  0  0  0  0  0  0  0  0  0  0
   -4.2868   -0.0000    0.0000 C   0  0  0  0  0  0  0  0  0  0  0  0
   -4.2868    0.8250    0.0000 C   0  0  0  0  0  0  0  0  0  0  0  0
   -3.5724    1.2375    0.0000 C   0  0  0  0  0  0  0  0  0  0  0  0
   -2.8579    0.8250    0.0000 C   0  0  0  0  0  0  0  0  0  0  0  0
   -3.5724   -1.2375    0.0000 N   0  3  0  0  0  0  0  0  0  0  0  0
   -4.2868   -1.6500    0.0000 O   0  0  0  0  0  0  0  0  0  0  0  0
   -2.8579   -1.6500    0.0000 O   0  5  0  0  0  0  0  0  0  0  0  0
   -5.0013    1.2375    0.0000 C   0  0  0  0  0  0  0  0  0  0  0  0
   -5.0013    2.0625    0.0000 O   0  0  0  0  0  0  0  0  0  0  0  0
   -5.7158    0.8250    0.0000 O   0  0  0  0  0  0  0  0  0  0  0  0
   -1.4289   -4.9500    0.0000 Cl  0  0  0  0  0  0  0  0  0  0  0  0
    0.0000   -4.1250    0.0000 S   0  0  0  0  0  0  0  0  0  0  0  0
    0.7145   -4.5375    0.0000 O   0  0  0  0  0  0  0  0  0  0  0  0
   -0.4125   -4.8395    0.0000 O   0  0  0  0  0  0  0  0  0  0  0  0
    0.4125   -3.4105    0.0000 N   0  0  0  0  0  0  0  0  0  0  0  0
  1  2  1  0  0  0  0
  2  3  2  0  0  0  0
  1  4  2  0  0  0  0
  4  5  1  0  0  0  0
  5  6  2  0  0  0  0
  6  7  1  0  0  0  0
  7  8  2  0  0  0  0
  1  8  1  0  0  0  0
  9 10  1  0  0  0  0
 11 12  2  0  0  0  0
 12 13  1  0  0  0  0
 13 14  2  0  0  0  0
 14 15  1  0  0  0  0
 15 16  2  0  0  0  0
 11 16  1  0  0  0  0
 17 18  2  0  0  0  0
 17 19  1  0  0  0  0
 12 17  1  0  0  0  0
 20 21  1  0  0  0  0
 20 22  2  0  0  0  0
 14 20  1  0  0  0  0
  9 11  1  0  0  0  0
  2 10  1  0  0  0  0
  6 23  1  0  0  0  0
 24 25  2  0  0  0  0
 24 26  2  0  0  0  0
 24 27  1  0  0  0  0
  5 24  1  0  0  0  0
M  CHG  2  17   1  19  -1
M  END
>  <type>
systematic

$$$$
5-Oxa-1-azabicyclo[4.2.0]oct-2-ene-2-carboxylic acid, 7-[(hydroxyphenylacetyl)amino]-3-(methoxymethyl)-8-oxo-, [6 R-[6α,7β(R*)]]-
  Mrv2401 11022413232D          

  0  0  0     0  0            999 V3000
M  V30 BEGIN CTAB
M  V30 COUNTS 26 28 0 0 1
M  V30 BEGIN ATOM
M  V30 1 N 3.1555 -0.2818 0 0
M  V30 2 C 4.4892 0.4882 0 0
M  V30 3 C 5.8229 -0.2818 0 0
M  V30 4 C 5.8229 -1.8218 0 0
M  V30 5 O 4.4892 -2.5918 0 0
M  V30 6 C 3.1555 -1.8218 0 0 CFG=2
M  V30 7 C 1.6155 -1.8218 0 0 CFG=2
M  V30 8 C 1.6155 -0.2818 0 0
M  V30 9 C 4.4892 2.0282 0 0
M  V30 10 O 5.8229 2.7982 0 0
M  V30 11 O 3.1555 2.7982 0 0
M  V30 12 O 0.5266 0.8071 0 0
M  V30 13 C 7.1566 0.4882 0 0
M  V30 14 O 8.4902 -0.2818 0 0
M  V30 15 C 9.8239 0.4882 0 0
M  V30 16 N 0.5266 -2.9108 0 0
M  V30 17 C -0.961 -2.5122 0 0
M  V30 18 O -1.3595 -1.0247 0 0
M  V30 19 C -2.0499 -3.6011 0 0
M  V30 20 C -3.5374 -3.2026 0 0
M  V30 21 C -4.6264 -4.2915 0 0
M  V30 22 C -6.1139 -3.8929 0 0
M  V30 23 C -6.5125 -2.4054 0 0
M  V30 24 C -5.4235 -1.3165 0 0
M  V30 25 C -3.936 -1.715 0 0
M  V30 26 O -1.6513 -5.0887 0 0
M  V30 END ATOM
M  V30 BEGIN BOND
M  V30 1 1 1 2
M  V30 2 2 2 3
M  V30 3 1 3 4
M  V30 4 1 4 5
M  V30 5 1 6 5
M  V30 6 1 6 1 CFG=3
M  V30 7 1 6 7
M  V30 8 1 7 8
M  V30 9 1 1 8
M  V30 10 1 9 10
M  V30 11 2 9 11
M  V30 12 1 2 9
M  V30 13 2 8 12
M  V30 14 1 14 15
M  V30 15 1 13 14
M  V30 16 1 3 13
M  V30 17 2 17 18
M  V30 18 1 17 19
M  V30 19 2 20 21
M  V30 20 1 21 22
M  V30 21 2 22 23
M  V30 22 1 23 24
M  V30 23 2 24 25
M  V30 24 1 20 25
M  V30 25 1 19 20
M  V30 26 1 19 26
M  V30 27 1 16 17
M  V30 28 1 7 16 CFG=1
M  V30 END BOND
M  V30 BEGIN COLLECTION
M  V30 MDLV30/STEREL1 ATOMS=(1 7)
M  V30 END COLLECTION
M  V30 END CTAB
M  END
>  <type>
systematic

$$$$
4-[[2-(4-Methoxy-7-methyl-5-oxo-5H-furo[3,2- g][1]benzopyran-6-yl)-2-oxoethyl]amino]benzoic acid
  Mrv2401 11022413252D          

 30 33  0  0  0  0            999 V2000
    7.0714   -2.3479    0.0000 C   0  0  0  0  0  0  0  0  0  0  0  0
    7.7858   -2.7604    0.0000 C   0  0  0  0  0  0  0  0  0  0  0  0
    8.5003   -2.3479    0.0000 O   0  0  0  0  0  0  0  0  0  0  0  0
    7.7858   -3.5854    0.0000 O   0  0  0  0  0  0  0  0  0  0  0  0
    6.3569   -2.7604    0.0000 C   0  0  0  0  0  0  0  0  0  0  0  0
    5.6424   -2.3479    0.0000 C   0  0  0  0  0  0  0  0  0  0  0  0
    5.6424   -1.5229    0.0000 C   0  0  0  0  0  0  0  0  0  0  0  0
    6.3569   -1.1104    0.0000 C   0  0  0  0  0  0  0  0  0  0  0  0
    7.0714   -1.5229    0.0000 C   0  0  0  0  0  0  0  0  0  0  0  0
    4.9279   -1.1104    0.0000 N   0  0  0  0  0  0  0  0  0  0  0  0
    4.2135   -1.5229    0.0000 C   0  0  0  0  0  0  0  0  0  0  0  0
    3.4990   -1.1104    0.0000 C   0  0  0  0  0  0  0  0  0  0  0  0
    3.4990   -0.2854    0.0000 O   0  0  0  0  0  0  0  0  0  0  0  0
    0.6411   -2.7604    0.0000 C   0  0  0  0  0  0  0  0  0  0  0  0
    1.3556   -2.3479    0.0000 C   0  0  0  0  0  0  0  0  0  0  0  0
    1.3556   -1.5229    0.0000 C   0  0  0  0  0  0  0  0  0  0  0  0
    0.6411   -1.1104    0.0000 C   0  0  0  0  0  0  0  0  0  0  0  0
    2.0701   -1.1104    0.0000 C   0  0  0  0  0  0  0  0  0  0  0  0
    2.7845   -1.5229    0.0000 C   0  0  0  0  0  0  0  0  0  0  0  0
    2.7845   -2.3479    0.0000 C   0  0  0  0  0  0  0  0  0  0  0  0
    2.0701   -2.7604    0.0000 O   0  0  0  0  0  0  0  0  0  0  0  0
   -0.8580   -2.6029    0.0000 O   0  0  0  0  0  0  0  0  0  0  0  0
   -0.0734   -2.3479    0.0000 C   0  0  0  0  0  0  0  0  0  0  0  0
   -0.0734   -1.5229    0.0000 C   0  0  0  0  0  0  0  0  0  0  0  0
   -0.8580   -1.2680    0.0000 C   0  0  0  0  0  0  0  0  0  0  0  0
   -1.3429   -1.9354    0.0000 C   0  0  0  0  0  0  0  0  0  0  0  0
    2.0701   -0.2854    0.0000 O   0  0  0  0  0  0  0  0  0  0  0  0
    3.4990   -2.7604    0.0000 C   0  0  0  0  0  0  0  0  0  0  0  0
    0.6411   -0.2854    0.0000 O   0  0  0  0  0  0  0  0  0  0  0  0
   -0.0734    0.1271    0.0000 C   0  0  0  0  0  0  0  0  0  0  0  0
  1  2  1  0  0  0  0
  2  3  1  0  0  0  0
  2  4  2  0  0  0  0
  1  5  2  0  0  0  0
  5  6  1  0  0  0  0
  6  7  2  0  0  0  0
  7  8  1  0  0  0  0
  8  9  2  0  0  0  0
  1  9  1  0  0  0  0
 11 12  1  0  0  0  0
 12 13  2  0  0  0  0
 23 14  2  0  0  0  0
 14 15  1  0  0  0  0
 15 16  2  0  0  0  0
 16 17  1  0  0  0  0
 17 24  2  0  0  0  0
 16 18  1  0  0  0  0
 18 19  1  0  0  0  0
 19 20  2  0  0  0  0
 20 21  1  0  0  0  0
 15 21  1  0  0  0  0
 22 23  1  0  0  0  0
 23 24  1  0  0  0  0
 24 25  1  0  0  0  0
 25 26  2  0  0  0  0
 22 26  1  0  0  0  0
 18 27  2  0  0  0  0
 20 28  1  0  0  0  0
 29 30  1  0  0  0  0
 17 29  1  0  0  0  0
 12 19  1  0  0  0  0
 10 11  1  0  0  0  0
  7 10  1  0  0  0  0
M  END
>  <type>
systematic

$$$$
5-Thia-1-azabicyclo[4.2.0]oct-2-ene-2-carboxylic acid, 3-chloro-7-[(hydroxyphenylacetyl)amino]-8-oxo-, [6 R-[6α,7β(R*)]]-
  Mrv2401 11022413262D          

  0  0  0     0  0            999 V3000
M  V30 BEGIN CTAB
M  V30 COUNTS 24 26 0 0 1
M  V30 BEGIN ATOM
M  V30 1 N 3.1555 -0.2818 0 0
M  V30 2 C 4.4892 0.4882 0 0
M  V30 3 C 5.8229 -0.2818 0 0
M  V30 4 C 5.8229 -1.8218 0 0
M  V30 5 S 4.4892 -2.5918 0 0
M  V30 6 C 3.1555 -1.8218 0 0 CFG=2
M  V30 7 C 1.6155 -1.8218 0 0 CFG=1
M  V30 8 C 1.6155 -0.2818 0 0
M  V30 9 C 4.4892 2.0282 0 0
M  V30 10 O 5.8229 2.7982 0 0
M  V30 11 O 3.1555 2.7982 0 0
M  V30 12 O 0.5266 0.8071 0 0
M  V30 13 N 0.5266 -2.9108 0 0
M  V30 14 C -0.961 -2.5122 0 0
M  V30 15 O -1.3595 -1.0247 0 0
M  V30 16 C -2.0499 -3.6011 0 0
M  V30 17 C -3.5374 -3.2026 0 0
M  V30 18 C -4.6264 -4.2915 0 0
M  V30 19 C -6.1139 -3.8929 0 0
M  V30 20 C -6.5125 -2.4054 0 0
M  V30 21 C -5.4235 -1.3165 0 0
M  V30 22 C -3.936 -1.715 0 0
M  V30 23 O -1.6513 -5.0887 0 0
M  V30 24 Cl 7.1566 0.4882 0 0
M  V30 END ATOM
M  V30 BEGIN BOND
M  V30 1 1 1 2
M  V30 2 2 2 3
M  V30 3 1 3 4
M  V30 4 1 4 5
M  V30 5 1 6 5
M  V30 6 1 6 1 CFG=3
M  V30 7 1 6 7
M  V30 8 1 7 8
M  V30 9 1 1 8
M  V30 10 1 9 10
M  V30 11 2 9 11
M  V30 12 1 2 9
M  V30 13 2 8 12
M  V30 14 2 14 15
M  V30 15 1 14 16
M  V30 16 2 17 18
M  V30 17 1 18 19
M  V30 18 2 19 20
M  V30 19 1 20 21
M  V30 20 2 21 22
M  V30 21 1 17 22
M  V30 22 1 16 17
M  V30 23 1 16 23
M  V30 24 1 13 14
M  V30 25 1 7 13 CFG=3
M  V30 26 1 3 24
M  V30 END BOND
M  V30 BEGIN COLLECTION
M  V30 MDLV30/STEREL1 ATOMS=(1 7)
M  V30 END COLLECTION
M  V30 END CTAB
M  END
>  <type>
systematic

$$$$
5-Oxa-1-azabicyclo[4.2.0]oct-2-ene-2-carboxylic acid, 3-[(acetyloxy)methyl]-7-[(hydroxyphenylacetyl)amino]-8-oxo-, [6 R-[6α,7β(R*)]]-
  Mrv2401 11022413302D          

  0  0  0     0  0            999 V3000
M  V30 BEGIN CTAB
M  V30 COUNTS 28 30 0 0 1
M  V30 BEGIN ATOM
M  V30 1 N 3.1555 -0.2818 0 0
M  V30 2 C 4.4892 0.4882 0 0
M  V30 3 C 5.8229 -0.2818 0 0
M  V30 4 C 5.8229 -1.8218 0 0
M  V30 5 O 4.4892 -2.5918 0 0
M  V30 6 C 3.1555 -1.8218 0 0 CFG=2
M  V30 7 C 1.6155 -1.8218 0 0 CFG=2
M  V30 8 C 1.6155 -0.2818 0 0
M  V30 9 C 4.4892 2.0282 0 0
M  V30 10 O 5.8229 2.7982 0 0
M  V30 11 O 3.1555 2.7982 0 0
M  V30 12 O 0.5266 0.8071 0 0
M  V30 13 N 0.5266 -2.9108 0 0
M  V30 14 C -0.961 -2.5122 0 0
M  V30 15 O -1.3595 -1.0247 0 0
M  V30 16 C -2.0499 -3.6011 0 0
M  V30 17 C -3.5374 -3.2026 0 0
M  V30 18 C -4.6264 -4.2915 0 0
M  V30 19 C -6.1139 -3.8929 0 0
M  V30 20 C -6.5125 -2.4054 0 0
M  V30 21 C -5.4235 -1.3165 0 0
M  V30 22 C -3.936 -1.715 0 0
M  V30 23 O -1.6513 -5.0887 0 0
M  V30 24 C 7.1566 0.4882 0 0
M  V30 25 O 7.1566 2.0282 0 0
M  V30 26 C 8.4902 2.7982 0 0
M  V30 27 O 8.4902 4.3382 0 0
M  V30 28 C 9.8239 2.0282 0 0
M  V30 END ATOM
M  V30 BEGIN BOND
M  V30 1 1 1 2
M  V30 2 2 2 3
M  V30 3 1 3 4
M  V30 4 1 4 5
M  V30 5 1 6 5
M  V30 6 1 6 1 CFG=3
M  V30 7 1 6 7
M  V30 8 1 7 8
M  V30 9 1 1 8
M  V30 10 1 9 10
M  V30 11 2 9 11
M  V30 12 1 2 9
M  V30 13 2 8 12
M  V30 14 2 14 15
M  V30 15 1 14 16
M  V30 16 2 17 18
M  V30 17 1 18 19
M  V30 18 2 19 20
M  V30 19 1 20 21
M  V30 20 2 21 22
M  V30 21 1 17 22
M  V30 22 1 16 17
M  V30 23 1 16 23
M  V30 24 1 13 14
M  V30 25 1 7 13 CFG=1
M  V30 26 1 25 26
M  V30 27 2 26 27
M  V30 28 1 26 28
M  V30 29 1 24 25
M  V30 30 1 3 24
M  V30 END BOND
M  V30 BEGIN COLLECTION
M  V30 MDLV30/STEREL1 ATOMS=(1 7)
M  V30 END COLLECTION
M  V30 END CTAB
M  END
>  <type>
systematic

$$$$
5-Thia-1-azabicyclo[4.2.0]oct-2-ene-2-carboxylic acid, 7-[(hydroxyphenylacetyl)amino]-3-methoxy-8-oxo-, [6 R-[6α,7β(R*)]]-
  Mrv2401 11022413302D          

  0  0  0     0  0            999 V3000
M  V30 BEGIN CTAB
M  V30 COUNTS 25 27 0 0 1
M  V30 BEGIN ATOM
M  V30 1 N 3.1555 -0.2818 0 0
M  V30 2 C 4.4892 0.4882 0 0
M  V30 3 C 5.8229 -0.2818 0 0
M  V30 4 C 5.8229 -1.8218 0 0
M  V30 5 S 4.4892 -2.5918 0 0
M  V30 6 C 3.1555 -1.8218 0 0 CFG=2
M  V30 7 C 1.6155 -1.8218 0 0 CFG=1
M  V30 8 C 1.6155 -0.2818 0 0
M  V30 9 C 4.4892 2.0282 0 0
M  V30 10 O 5.8229 2.7982 0 0
M  V30 11 O 3.1555 2.7982 0 0
M  V30 12 O 0.5266 0.8071 0 0
M  V30 13 O 7.1566 0.4882 0 0
M  V30 14 C 8.4902 -0.2818 0 0
M  V30 15 N 0.5266 -2.9108 0 0
M  V30 16 C -0.961 -2.5122 0 0
M  V30 17 O -1.3595 -1.0247 0 0
M  V30 18 C -2.0499 -3.6011 0 0
M  V30 19 C -3.5374 -3.2026 0 0
M  V30 20 C -4.6264 -4.2915 0 0
M  V30 21 C -6.1139 -3.8929 0 0
M  V30 22 C -6.5125 -2.4054 0 0
M  V30 23 C -5.4235 -1.3165 0 0
M  V30 24 C -3.936 -1.715 0 0
M  V30 25 O -1.6513 -5.0887 0 0
M  V30 END ATOM
M  V30 BEGIN BOND
M  V30 1 1 1 2
M  V30 2 2 2 3
M  V30 3 1 3 4
M  V30 4 1 4 5
M  V30 5 1 6 5
M  V30 6 1 6 1 CFG=3
M  V30 7 1 6 7
M  V30 8 1 7 8
M  V30 9 1 1 8
M  V30 10 1 9 10
M  V30 11 2 9 11
M  V30 12 1 2 9
M  V30 13 2 8 12
M  V30 14 1 13 14
M  V30 15 1 3 13
M  V30 16 2 16 17
M  V30 17 1 16 18
M  V30 18 2 19 20
M  V30 19 1 20 21
M  V30 20 2 21 22
M  V30 21 1 22 23
M  V30 22 2 23 24
M  V30 23 1 19 24
M  V30 24 1 18 19
M  V30 25 1 18 25
M  V30 26 1 15 16
M  V30 27 1 7 15 CFG=3
M  V30 END BOND
M  V30 BEGIN COLLECTION
M  V30 MDLV30/STEREL1 ATOMS=(1 7)
M  V30 END COLLECTION
M  V30 END CTAB
M  END
>  <type>
systematic

$$$$

  Mrv2401 11022413342D          

  0  0  0     0  0            999 V3000
M  V30 BEGIN CTAB
M  V30 COUNTS 25 27 0 0 1
M  V30 BEGIN ATOM
M  V30 1 N 3.1555 -0.2818 0 0
M  V30 2 C 4.4892 0.4882 0 0
M  V30 3 C 5.8229 -0.2818 0 0
M  V30 4 C 5.8229 -1.8218 0 0
M  V30 5 S 4.4892 -2.5918 0 0
M  V30 6 C 3.1555 -1.8218 0 0 CFG=2
M  V30 7 C 1.6155 -1.8218 0 0 CFG=1
M  V30 8 C 1.6155 -0.2818 0 0
M  V30 9 C 4.4892 2.0282 0 0
M  V30 10 O 5.8229 2.7982 0 0
M  V30 11 O 3.1555 2.7982 0 0
M  V30 12 O 0.5266 0.8071 0 0
M  V30 13 C 7.1566 0.4882 0 0
M  V30 14 C 8.4902 -0.2818 0 0
M  V30 15 N 0.5266 -2.9108 0 0
M  V30 16 C -0.961 -2.5122 0 0
M  V30 17 O -1.3595 -1.0247 0 0
M  V30 18 C -2.0499 -3.6011 0 0
M  V30 19 C -3.5374 -3.2026 0 0
M  V30 20 C -4.6264 -4.2915 0 0
M  V30 21 C -6.1139 -3.8929 0 0
M  V30 22 C -6.5125 -2.4054 0 0
M  V30 23 C -5.4235 -1.3165 0 0
M  V30 24 C -3.936 -1.715 0 0
M  V30 25 O -1.6513 -5.0887 0 0
M  V30 END ATOM
M  V30 BEGIN BOND
M  V30 1 1 1 2
M  V30 2 2 2 3
M  V30 3 1 3 4
M  V30 4 1 4 5
M  V30 5 1 6 5
M  V30 6 1 6 1 CFG=3
M  V30 7 1 6 7
M  V30 8 1 7 8
M  V30 9 1 1 8
M  V30 10 1 9 10
M  V30 11 2 9 11
M  V30 12 1 2 9
M  V30 13 2 8 12
M  V30 14 1 13 14
M  V30 15 1 3 13
M  V30 16 2 16 17
M  V30 17 1 16 18
M  V30 18 2 19 20
M  V30 19 1 20 21
M  V30 20 2 21 22
M  V30 21 1 22 23
M  V30 22 2 23 24
M  V30 23 1 19 24
M  V30 24 1 18 19
M  V30 25 2 18 25
M  V30 26 1 15 16
M  V30 27 1 7 15 CFG=3
M  V30 END BOND
M  V30 BEGIN COLLECTION
M  V30 MDLV30/STEREL1 ATOMS=(1 7)
M  V30 END COLLECTION
M  V30 END CTAB
M  END
>  <type>
systematic

$$$$
(6R,7R)-3-[(Acetyloxy)methyl]-7-[[(2R)-2-hydroxy-2-phenylacetyl]amino]-8-oxo-5-thia-1-azabicyclo[4.2.0]oct-2-ene-2-carboxylic acid
  Mrv2401 11022413362D          

 28 30  0  0  1  0            999 V2000
    1.6905   -0.1510    0.0000 N   0  0  0  0  0  0  0  0  0  0  0  0
    2.4049    0.2615    0.0000 C   0  0  0  0  0  0  0  0  0  0  0  0
    3.1194   -0.1510    0.0000 C   0  0  0  0  0  0  0  0  0  0  0  0
    3.1194   -0.9760    0.0000 C   0  0  0  0  0  0  0  0  0  0  0  0
    2.4049   -1.3885    0.0000 S   0  0  0  0  0  0  0  0  0  0  0  0
    1.6905   -0.9760    0.0000 C   0  0  2  0  0  0  0  0  0  0  0  0
    0.8655   -0.9760    0.0000 C   0  0  1  0  0  0  0  0  0  0  0  0
    0.8655   -0.1510    0.0000 C   0  0  0  0  0  0  0  0  0  0  0  0
    2.4049    1.0865    0.0000 C   0  0  0  0  0  0  0  0  0  0  0  0
    3.1194    1.4990    0.0000 O   0  0  0  0  0  0  0  0  0  0  0  0
    1.6905    1.4990    0.0000 O   0  0  0  0  0  0  0  0  0  0  0  0
    0.2821    0.4324    0.0000 O   0  0  0  0  0  0  0  0  0  0  0  0
    0.2821   -1.5593    0.0000 N   0  0  0  0  0  0  0  0  0  0  0  0
   -0.5148   -1.3458    0.0000 C   0  0  0  0  0  0  0  0  0  0  0  0
   -0.7283   -0.5489    0.0000 O   0  0  0  0  0  0  0  0  0  0  0  0
   -1.0982   -1.9292    0.0000 C   0  0  1  0  0  0  0  0  0  0  0  0
   -1.8950   -1.7157    0.0000 C   0  0  0  0  0  0  0  0  0  0  0  0
   -2.4784   -2.2990    0.0000 C   0  0  0  0  0  0  0  0  0  0  0  0
   -3.2753   -2.0855    0.0000 C   0  0  0  0  0  0  0  0  0  0  0  0
   -3.4888   -1.2886    0.0000 C   0  0  0  0  0  0  0  0  0  0  0  0
   -2.9055   -0.7052    0.0000 C   0  0  0  0  0  0  0  0  0  0  0  0
   -2.1086   -0.9188    0.0000 C   0  0  0  0  0  0  0  0  0  0  0  0
   -0.8846   -2.7261    0.0000 O   0  0  0  0  0  0  0  0  0  0  0  0
    3.8339    0.2615    0.0000 C   0  0  0  0  0  0  0  0  0  0  0  0
    3.8339    1.0865    0.0000 O   0  0  0  0  0  0  0  0  0  0  0  0
    4.5483    1.4990    0.0000 C   0  0  0  0  0  0  0  0  0  0  0  0
    4.5483    2.3240    0.0000 O   0  0  0  0  0  0  0  0  0  0  0  0
    5.2628    1.0865    0.0000 C   0  0  0  0  0  0  0  0  0  0  0  0
  1  2  1  0  0  0  0
  2  3  2  0  0  0  0
  3  4  1  0  0  0  0
  4  5  1  0  0  0  0
  6  5  1  0  0  0  0
  6  1  1  6  0  0  0
  6  7  1  0  0  0  0
  7  8  1  0  0  0  0
  1  8  1  0  0  0  0
  9 10  1  0  0  0  0
  9 11  2  0  0  0  0
  2  9  1  0  0  0  0
  8 12  2  0  0  0  0
 14 15  2  0  0  0  0
 16 14  1  0  0  0  0
 17 18  2  0  0  0  0
 18 19  1  0  0  0  0
 19 20  2  0  0  0  0
 20 21  1  0  0  0  0
 21 22  2  0  0  0  0
 17 22  1  0  0  0  0
 16 17  1  0  0  0  0
 16 23  1  6  0  0  0
 13 14  1  0  0  0  0
  7 13  1  6  0  0  0
 25 26  1  0  0  0  0
 26 27  2  0  0  0  0
 26 28  1  0  0  0  0
 24 25  1  0  0  0  0
  3 24  1  0  0  0  0
M  END
>  <type>
systematic

$$$$
5-Thia-1-azabicyclo[4.2.0]oct-2-ene-2-carboxylic acid, 3-[(acetyloxy)methyl]-7-[(hydroxyphenylacetyl)amino]-8-oxo-, [6 R-(6α,7β)]-
  Mrv2401 11022413362D          

 28 30  0  0  1  0            999 V2000
    1.6905   -0.1510    0.0000 N   0  0  0  0  0  0  0  0  0  0  0  0
    2.4049    0.2615    0.0000 C   0  0  0  0  0  0  0  0  0  0  0  0
    3.1194   -0.1510    0.0000 C   0  0  0  0  0  0  0  0  0  0  0  0
    3.1194   -0.9760    0.0000 C   0  0  0  0  0  0  0  0  0  0  0  0
    2.4049   -1.3885    0.0000 S   0  0  0  0  0  0  0  0  0  0  0  0
    1.6905   -0.9760    0.0000 C   0  0  2  0  0  0  0  0  0  0  0  0
    0.8655   -0.9760    0.0000 C   0  0  2  0  0  0  0  0  0  0  0  0
    0.8655   -0.1510    0.0000 C   0  0  0  0  0  0  0  0  0  0  0  0
    2.4049    1.0865    0.0000 C   0  0  0  0  0  0  0  0  0  0  0  0
    3.1194    1.4990    0.0000 O   0  0  0  0  0  0  0  0  0  0  0  0
    1.6905    1.4990    0.0000 O   0  0  0  0  0  0  0  0  0  0  0  0
    0.2821    0.4324    0.0000 O   0  0  0  0  0  0  0  0  0  0  0  0
    0.2821   -1.5593    0.0000 N   0  0  0  0  0  0  0  0  0  0  0  0
   -0.5148   -1.3458    0.0000 C   0  0  0  0  0  0  0  0  0  0  0  0
   -0.7283   -0.5489    0.0000 O   0  0  0  0  0  0  0  0  0  0  0  0
   -1.0982   -1.9292    0.0000 C   0  0  0  0  0  0  0  0  0  0  0  0
   -1.8950   -1.7157    0.0000 C   0  0  0  0  0  0  0  0  0  0  0  0
   -2.4784   -2.2990    0.0000 C   0  0  0  0  0  0  0  0  0  0  0  0
   -3.2753   -2.0855    0.0000 C   0  0  0  0  0  0  0  0  0  0  0  0
   -3.4888   -1.2886    0.0000 C   0  0  0  0  0  0  0  0  0  0  0  0
   -2.9055   -0.7052    0.0000 C   0  0  0  0  0  0  0  0  0  0  0  0
   -2.1086   -0.9188    0.0000 C   0  0  0  0  0  0  0  0  0  0  0  0
   -0.8846   -2.7261    0.0000 O   0  0  0  0  0  0  0  0  0  0  0  0
    3.8339    0.2615    0.0000 C   0  0  0  0  0  0  0  0  0  0  0  0
    3.8339    1.0865    0.0000 O   0  0  0  0  0  0  0  0  0  0  0  0
    4.5483    1.4990    0.0000 C   0  0  0  0  0  0  0  0  0  0  0  0
    4.5483    2.3240    0.0000 O   0  0  0  0  0  0  0  0  0  0  0  0
    5.2628    1.0865    0.0000 C   0  0  0  0  0  0  0  0  0  0  0  0
  1  2  1  0  0  0  0
  2  3  2  0  0  0  0
  3  4  1  0  0  0  0
  4  5  1  0  0  0  0
  6  5  1  0  0  0  0
  6  1  1  6  0  0  0
  6  7  1  0  0  0  0
  7  8  1  0  0  0  0
  1  8  1  0  0  0  0
  9 10  1  0  0  0  0
  9 11  2  0  0  0  0
  2  9  1  0  0  0  0
  8 12  2  0  0  0  0
 14 15  2  0  0  0  0
 14 16  1  0  0  0  0
 17 18  2  0  0  0  0
 18 19  1  0  0  0  0
 19 20  2  0  0  0  0
 20 21  1  0  0  0  0
 21 22  2  0  0  0  0
 17 22  1  0  0  0  0
 16 17  1  0  0  0  0
 16 23  1  0  0  0  0
 13 14  1  0  0  0  0
  7 13  1  1  0  0  0
 25 26  1  0  0  0  0
 26 27  2  0  0  0  0
 26 28  1  0  0  0  0
 24 25  1  0  0  0  0
  3 24  1  0  0  0  0
M  END
>  <type>
systematic

$$$$
5-Thia-1-azabicyclo[4.2.0]oct-2-ene-2-carboxylic acid, 3-[(acetyloxy)methyl]-7-[[(2S)-hydroxyphenylacetyl]amino]-8-oxo-,(6R,7R)-
  Mrv2401 11022413382D          

 28 30  0  0  1  0            999 V2000
    1.6905   -0.1510    0.0000 N   0  0  0  0  0  0  0  0  0  0  0  0
    2.4049    0.2615    0.0000 C   0  0  0  0  0  0  0  0  0  0  0  0
    3.1194   -0.1510    0.0000 C   0  0  0  0  0  0  0  0  0  0  0  0
    3.1194   -0.9760    0.0000 C   0  0  0  0  0  0  0  0  0  0  0  0
    2.4049   -1.3885    0.0000 S   0  0  0  0  0  0  0  0  0  0  0  0
    1.6905   -0.9760    0.0000 C   0  0  2  0  0  0  0  0  0  0  0  0
    0.8655   -0.9760    0.0000 C   0  0  1  0  0  0  0  0  0  0  0  0
    0.8655   -0.1510    0.0000 C   0  0  0  0  0  0  0  0  0  0  0  0
    2.4049    1.0865    0.0000 C   0  0  0  0  0  0  0  0  0  0  0  0
    3.1194    1.4990    0.0000 O   0  0  0  0  0  0  0  0  0  0  0  0
    1.6905    1.4990    0.0000 O   0  0  0  0  0  0  0  0  0  0  0  0
    0.2821    0.4324    0.0000 O   0  0  0  0  0  0  0  0  0  0  0  0
    0.2821   -1.5593    0.0000 N   0  0  0  0  0  0  0  0  0  0  0  0
   -0.5148   -1.3458    0.0000 C   0  0  0  0  0  0  0  0  0  0  0  0
   -0.7283   -0.5489    0.0000 O   0  0  0  0  0  0  0  0  0  0  0  0
   -1.0982   -1.9292    0.0000 C   0  0  2  0  0  0  0  0  0  0  0  0
   -1.8950   -1.7157    0.0000 C   0  0  0  0  0  0  0  0  0  0  0  0
   -2.4784   -2.2990    0.0000 C   0  0  0  0  0  0  0  0  0  0  0  0
   -3.2753   -2.0855    0.0000 C   0  0  0  0  0  0  0  0  0  0  0  0
   -3.4888   -1.2886    0.0000 C   0  0  0  0  0  0  0  0  0  0  0  0
   -2.9055   -0.7052    0.0000 C   0  0  0  0  0  0  0  0  0  0  0  0
   -2.1086   -0.9188    0.0000 C   0  0  0  0  0  0  0  0  0  0  0  0
   -0.8846   -2.7261    0.0000 O   0  0  0  0  0  0  0  0  0  0  0  0
    3.8339    0.2615    0.0000 C   0  0  0  0  0  0  0  0  0  0  0  0
    3.8339    1.0865    0.0000 O   0  0  0  0  0  0  0  0  0  0  0  0
    4.5483    1.4990    0.0000 C   0  0  0  0  0  0  0  0  0  0  0  0
    4.5483    2.3240    0.0000 O   0  0  0  0  0  0  0  0  0  0  0  0
    5.2628    1.0865    0.0000 C   0  0  0  0  0  0  0  0  0  0  0  0
  1  2  1  0  0  0  0
  2  3  2  0  0  0  0
  3  4  1  0  0  0  0
  4  5  1  0  0  0  0
  6  5  1  0  0  0  0
  6  1  1  6  0  0  0
  6  7  1  0  0  0  0
  7  8  1  0  0  0  0
  1  8  1  0  0  0  0
  9 10  1  0  0  0  0
  9 11  2  0  0  0  0
  2  9  1  0  0  0  0
  8 12  2  0  0  0  0
 14 15  2  0  0  0  0
 16 14  1  0  0  0  0
 17 18  2  0  0  0  0
 18 19  1  0  0  0  0
 19 20  2  0  0  0  0
 20 21  1  0  0  0  0
 21 22  2  0  0  0  0
 17 22  1  0  0  0  0
 16 17  1  0  0  0  0
 16 23  1  1  0  0  0
 13 14  1  0  0  0  0
  7 13  1  6  0  0  0
 25 26  1  0  0  0  0
 26 27  2  0  0  0  0
 26 28  1  0  0  0  0
 24 25  1  0  0  0  0
  3 24  1  0  0  0  0
M  END
>  <type>
systematic

$$$$
4-Thia-1-azabicyclo[3.2.0]heptane-2-carboxylic acid, 6-[[[3-(azidomethyl)-4-hydroxyphenyl]hydroxyacetyl]amino]-3,3-dimethyl-7-oxo-, [2 S-(2α,5α,6β)]-
  Mrv2401 11022413392D          

 29 31  0  0  1  0            999 V2000
    1.7733    0.2488    0.0000 N   0  0  0  0  0  0  0  0  0  0  0  0
    2.5579    0.5038    0.0000 C   0  0  2  0  0  0  0  0  0  0  0  0
    3.0428   -0.1637    0.0000 C   0  0  0  0  0  0  0  0  0  0  0  0
    2.5579   -0.8311    0.0000 S   0  0  0  0  0  0  0  0  0  0  0  0
    1.7733   -0.5762    0.0000 C   0  0  1  0  0  0  0  0  0  0  0  0
    0.9483   -0.5762    0.0000 C   0  0  2  0  0  0  0  0  0  0  0  0
    0.9483    0.2488    0.0000 C   0  0  0  0  0  0  0  0  0  0  0  0
    2.8129    1.2884    0.0000 C   0  0  0  0  0  0  0  0  0  0  0  0
    3.6198    1.4599    0.0000 O   0  0  0  0  0  0  0  0  0  0  0  0
    2.2608    1.9015    0.0000 O   0  0  0  0  0  0  0  0  0  0  0  0
    0.3649    0.8322    0.0000 O   0  0  0  0  0  0  0  0  0  0  0  0
    3.7616    0.2413    0.0000 C   0  0  0  0  0  0  0  0  0  0  0  0
    3.7616   -0.5687    0.0000 C   0  0  0  0  0  0  0  0  0  0  0  0
    0.3649   -1.1595    0.0000 N   0  0  0  0  0  0  0  0  0  0  0  0
   -0.4319   -0.9460    0.0000 C   0  0  0  0  0  0  0  0  0  0  0  0
   -0.6455   -0.1491    0.0000 O   0  0  0  0  0  0  0  0  0  0  0  0
   -1.0153   -1.5294    0.0000 C   0  0  0  0  0  0  0  0  0  0  0  0
   -0.8018   -2.3263    0.0000 O   0  0  0  0  0  0  0  0  0  0  0  0
   -1.8122   -1.3159    0.0000 C   0  0  0  0  0  0  0  0  0  0  0  0
   -2.3956   -1.8992    0.0000 C   0  0  0  0  0  0  0  0  0  0  0  0
   -3.1925   -1.6857    0.0000 C   0  0  0  0  0  0  0  0  0  0  0  0
   -3.4060   -0.8888    0.0000 C   0  0  0  0  0  0  0  0  0  0  0  0
   -2.8226   -0.3054    0.0000 C   0  0  0  0  0  0  0  0  0  0  0  0
   -2.0257   -0.5190    0.0000 C   0  0  0  0  0  0  0  0  0  0  0  0
   -4.2029   -0.6753    0.0000 O   0  0  0  0  0  0  0  0  0  0  0  0
   -3.7758   -2.2691    0.0000 C   0  0  0  0  0  0  0  0  0  0  0  0
   -4.5727   -2.0555    0.0000 N   0  0  0  0  0  0  0  0  0  0  0  0
   -5.1561   -2.6389    0.0000 N   0  3  0  0  0  0  0  0  0  0  0  0
   -5.7394   -3.2223    0.0000 N   0  5  0  0  0  0  0  0  0  0  0  0
  2  1  1  0  0  0  0
  2  3  1  0  0  0  0
  3  4  1  0  0  0  0
  5  4  1  0  0  0  0
  5  1  1  1  0  0  0
  5  6  1  0  0  0  0
  6  7  1  0  0  0  0
  1  7  1  0  0  0  0
  8  9  1  0  0  0  0
  8 10  2  0  0  0  0
  2  8  1  1  0  0  0
  7 11  2  0  0  0  0
  3 12  1  0  0  0  0
  3 13  1  0  0  0  0
 15 16  2  0  0  0  0
 15 17  1  0  0  0  0
 17 18  1  0  0  0  0
 19 20  2  0  0  0  0
 20 21  1  0  0  0  0
 21 22  2  0  0  0  0
 22 23  1  0  0  0  0
 23 24  2  0  0  0  0
 19 24  1  0  0  0  0
 22 25  1  0  0  0  0
 27 28  2  0  0  0  0
 28 29  2  0  0  0  0
 26 27  1  0  0  0  0
 21 26  1  0  0  0  0
 17 19  1  0  0  0  0
 14 15  1  0  0  0  0
  6 14  1  1  0  0  0
M  CHG  2  28   1  29  -1
M  END
>  <type>
systematic

$$$$
4-[[1-Ethoxy-2-[5-methyl-3-(5-nitro-2-furanyl)-4-isoxazolyl]-2-oxoethyl]amino]benzoic acid
  Mrv2401 11022413392D          

 30 32  0  0  0  0            999 V2000
    2.1434    4.5375    0.0000 C   0  0  0  0  0  0  0  0  0  0  0  0
    2.8579    4.9500    0.0000 C   0  0  0  0  0  0  0  0  0  0  0  0
    3.5724    4.5375    0.0000 O   0  0  0  0  0  0  0  0  0  0  0  0
    2.8579    5.7750    0.0000 O   0  0  0  0  0  0  0  0  0  0  0  0
    2.1434    3.7125    0.0000 C   0  0  0  0  0  0  0  0  0  0  0  0
    1.4289    3.3000    0.0000 C   0  0  0  0  0  0  0  0  0  0  0  0
    0.7145    3.7125    0.0000 C   0  0  0  0  0  0  0  0  0  0  0  0
    0.7145    4.5375    0.0000 C   0  0  0  0  0  0  0  0  0  0  0  0
    1.4289    4.9500    0.0000 C   0  0  0  0  0  0  0  0  0  0  0  0
    0.0000    3.3000    0.0000 N   0  0  0  0  0  0  0  0  0  0  0  0
    0.0000    2.4750    0.0000 C   0  0  0  0  0  0  0  0  0  0  0  0
   -0.7145    2.0625    0.0000 C   0  0  0  0  0  0  0  0  0  0  0  0
   -1.4289    2.4750    0.0000 O   0  0  0  0  0  0  0  0  0  0  0  0
   -0.3020   -0.0320    0.0000 O   0  0  0  0  0  0  0  0  0  0  0  0
   -1.1270   -0.0320    0.0000 N   0  0  0  0  0  0  0  0  0  0  0  0
   -1.3819    0.7526    0.0000 C   0  0  0  0  0  0  0  0  0  0  0  0
   -0.7145    1.2375    0.0000 C   0  0  0  0  0  0  0  0  0  0  0  0
   -0.0470    0.7526    0.0000 C   0  0  0  0  0  0  0  0  0  0  0  0
   -2.4215    1.7921    0.0000 O   0  0  0  0  0  0  0  0  0  0  0  0
   -2.1665    1.0075    0.0000 C   0  0  0  0  0  0  0  0  0  0  0  0
   -2.8340    0.5226    0.0000 C   0  0  0  0  0  0  0  0  0  0  0  0
   -3.5014    1.0075    0.0000 C   0  0  0  0  0  0  0  0  0  0  0  0
   -3.2465    1.7921    0.0000 C   0  0  0  0  0  0  0  0  0  0  0  0
   -3.7314    2.4596    0.0000 N   0  3  0  0  0  0  0  0  0  0  0  0
   -4.5519    2.3733    0.0000 O   0  0  0  0  0  0  0  0  0  0  0  0
   -3.3958    3.2133    0.0000 O   0  5  0  0  0  0  0  0  0  0  0  0
    0.7376    1.0075    0.0000 C   0  0  0  0  0  0  0  0  0  0  0  0
    0.7145    2.0625    0.0000 O   0  0  0  0  0  0  0  0  0  0  0  0
    1.4289    2.4750    0.0000 C   0  0  0  0  0  0  0  0  0  0  0  0
    2.1434    2.0625    0.0000 C   0  0  0  0  0  0  0  0  0  0  0  0
  1  2  1  0  0  0  0
  2  3  1  0  0  0  0
  2  4  2  0  0  0  0
  1  5  2  0  0  0  0
  5  6  1  0  0  0  0
  6  7  2  0  0  0  0
  7  8  1  0  0  0  0
  8  9  2  0  0  0  0
  1  9  1  0  0  0  0
 11 12  1  0  0  0  0
 12 13  2  0  0  0  0
 14 15  1  0  0  0  0
 15 16  2  0  0  0  0
 16 17  1  0  0  0  0
 17 18  2  0  0  0  0
 14 18  1  0  0  0  0
 19 20  1  0  0  0  0
 20 21  2  0  0  0  0
 21 22  1  0  0  0  0
 22 23  2  0  0  0  0
 19 23  1  0  0  0  0
 24 25  2  0  0  0  0
 24 26  1  0  0  0  0
 23 24  1  0  0  0  0
 16 20  1  0  0  0  0
 18 27  1  0  0  0  0
 12 17  1  0  0  0  0
 29 30  1  0  0  0  0
 28 29  1  0  0  0  0
 11 28  1  0  0  0  0
 10 11  1  0  0  0  0
  7 10  1  0  0  0  0
M  CHG  2  24   1  26  -1
M  END
>  <type>
systematic

$$$$
5-Thia-1-azabicyclo[4.2.0]oct-2-ene-2-carboxylic acid, 7-[(hydroxyphenylacetyl)amino]-3-(methylthio)-8-oxo-, [6 R-[6α,7β(R*)]]-
  Mrv2401 11022413402D          

  0  0  0     0  0            999 V3000
M  V30 BEGIN CTAB
M  V30 COUNTS 25 27 0 0 1
M  V30 BEGIN ATOM
M  V30 1 N 3.1555 -0.2818 0 0
M  V30 2 C 4.4892 0.4882 0 0
M  V30 3 C 5.8229 -0.2818 0 0
M  V30 4 C 5.8229 -1.8218 0 0
M  V30 5 S 4.4892 -2.5918 0 0
M  V30 6 C 3.1555 -1.8218 0 0 CFG=2
M  V30 7 C 1.6155 -1.8218 0 0 CFG=1
M  V30 8 C 1.6155 -0.2818 0 0
M  V30 9 C 4.4892 2.0282 0 0
M  V30 10 O 5.8229 2.7982 0 0
M  V30 11 O 3.1555 2.7982 0 0
M  V30 12 O 0.5266 0.8071 0 0
M  V30 13 S 7.1566 0.4882 0 0
M  V30 14 C 8.4902 -0.2818 0 0
M  V30 15 N 0.5266 -2.9108 0 0
M  V30 16 C -0.961 -2.5122 0 0
M  V30 17 O -1.3595 -1.0247 0 0
M  V30 18 C -2.0499 -3.6011 0 0
M  V30 19 C -3.5374 -3.2026 0 0
M  V30 20 C -4.6264 -4.2915 0 0
M  V30 21 C -6.1139 -3.8929 0 0
M  V30 22 C -6.5125 -2.4054 0 0
M  V30 23 C -5.4235 -1.3165 0 0
M  V30 24 C -3.936 -1.715 0 0
M  V30 25 O -1.6513 -5.0887 0 0
M  V30 END ATOM
M  V30 BEGIN BOND
M  V30 1 1 1 2
M  V30 2 2 2 3
M  V30 3 1 3 4
M  V30 4 1 4 5
M  V30 5 1 6 5
M  V30 6 1 6 1 CFG=3
M  V30 7 1 6 7
M  V30 8 1 7 8
M  V30 9 1 1 8
M  V30 10 1 9 10
M  V30 11 2 9 11
M  V30 12 1 2 9
M  V30 13 2 8 12
M  V30 14 1 13 14
M  V30 15 1 3 13
M  V30 16 2 16 17
M  V30 17 1 16 18
M  V30 18 2 19 20
M  V30 19 1 20 21
M  V30 20 2 21 22
M  V30 21 1 22 23
M  V30 22 2 23 24
M  V30 23 1 19 24
M  V30 24 1 18 19
M  V30 25 1 18 25
M  V30 26 1 15 16
M  V30 27 1 7 15 CFG=3
M  V30 END BOND
M  V30 BEGIN COLLECTION
M  V30 MDLV30/STEREL1 ATOMS=(1 7)
M  V30 END COLLECTION
M  V30 END CTAB
M  END
>  <type>
systematic

$$$$
4-[[2-Oxo-2-(2-phenyl-3-indolizinyl)acetyl]amino]benzoic acid
  Mrv2401 11022413412D          

 29 32  0  0  0  0            999 V2000
    2.8370   -3.1661    0.0000 C   0  0  0  0  0  0  0  0  0  0  0  0
    3.3890   -3.7792    0.0000 C   0  0  0  0  0  0  0  0  0  0  0  0
    4.1960   -3.6077    0.0000 O   0  0  0  0  0  0  0  0  0  0  0  0
    3.1341   -4.5638    0.0000 O   0  0  0  0  0  0  0  0  0  0  0  0
    2.0300   -3.3376    0.0000 C   0  0  0  0  0  0  0  0  0  0  0  0
    1.4780   -2.7246    0.0000 C   0  0  0  0  0  0  0  0  0  0  0  0
    1.7329   -1.9399    0.0000 C   0  0  0  0  0  0  0  0  0  0  0  0
    2.5399   -1.7684    0.0000 C   0  0  0  0  0  0  0  0  0  0  0  0
    3.0919   -2.3815    0.0000 C   0  0  0  0  0  0  0  0  0  0  0  0
    1.1809   -1.3268    0.0000 N   0  0  0  0  0  0  0  0  0  0  0  0
    1.4358   -0.5422    0.0000 C   0  0  0  0  0  0  0  0  0  0  0  0
    2.2428   -0.3707    0.0000 O   0  0  0  0  0  0  0  0  0  0  0  0
    0.8838    0.0709    0.0000 C   0  0  0  0  0  0  0  0  0  0  0  0
    3.3523    1.9354    0.0000 C   0  0  0  0  0  0  0  0  0  0  0  0
    3.3523    1.1104    0.0000 C   0  0  0  0  0  0  0  0  0  0  0  0
    2.6378    0.6979    0.0000 C   0  0  0  0  0  0  0  0  0  0  0  0
    1.9233    1.1104    0.0000 N   0  0  0  0  0  0  0  0  0  0  0  0
    1.1387    0.8555    0.0000 C   0  0  0  0  0  0  0  0  0  0  0  0
    0.6538    1.5229    0.0000 C   0  0  0  0  0  0  0  0  0  0  0  0
    1.1387    2.1904    0.0000 C   0  0  0  0  0  0  0  0  0  0  0  0
    1.9233    1.9354    0.0000 C   0  0  0  0  0  0  0  0  0  0  0  0
    2.6378    2.3479    0.0000 C   0  0  0  0  0  0  0  0  0  0  0  0
   -0.1712    1.5229    0.0000 C   0  0  0  0  0  0  0  0  0  0  0  0
   -0.5837    0.8085    0.0000 C   0  0  0  0  0  0  0  0  0  0  0  0
   -1.4087    0.8085    0.0000 C   0  0  0  0  0  0  0  0  0  0  0  0
   -1.8212    1.5229    0.0000 C   0  0  0  0  0  0  0  0  0  0  0  0
   -1.4087    2.2374    0.0000 C   0  0  0  0  0  0  0  0  0  0  0  0
   -0.5837    2.2374    0.0000 C   0  0  0  0  0  0  0  0  0  0  0  0
    0.0768   -0.1006    0.0000 O   0  0  0  0  0  0  0  0  0  0  0  0
  1  2  1  0  0  0  0
  2  3  1  0  0  0  0
  2  4  2  0  0  0  0
  1  5  2  0  0  0  0
  5  6  1  0  0  0  0
  6  7  2  0  0  0  0
  7  8  1  0  0  0  0
  8  9  2  0  0  0  0
  1  9  1  0  0  0  0
 11 12  2  0  0  0  0
 11 13  1  0  0  0  0
 14 15  1  0  0  0  0
 15 16  2  0  0  0  0
 16 17  1  0  0  0  0
 17 18  1  0  0  0  0
 18 19  2  0  0  0  0
 19 20  1  0  0  0  0
 20 21  2  0  0  0  0
 17 21  1  0  0  0  0
 21 22  1  0  0  0  0
 14 22  2  0  0  0  0
 23 24  2  0  0  0  0
 24 25  1  0  0  0  0
 25 26  2  0  0  0  0
 26 27  1  0  0  0  0
 27 28  2  0  0  0  0
 23 28  1  0  0  0  0
 19 23  1  0  0  0  0
 13 18  1  0  0  0  0
 13 29  2  0  0  0  0
 10 11  1  0  0  0  0
  7 10  1  0  0  0  0
M  END
>  <type>
systematic

$$$$
5-Thia-1-azabicyclo[4.2.0]oct-2-ene-2-carboxylic acid, 7-[(hydroxyphenylacetyl)amino]-3-[(methylthio)methyl]-8-oxo-,[6 R-[6α,7β(R*)]]-
  Mrv2401 11022413422D          

  0  0  0     0  0            999 V3000
M  V30 BEGIN CTAB
M  V30 COUNTS 26 28 0 0 1
M  V30 BEGIN ATOM
M  V30 1 N 3.1555 -0.2818 0 0
M  V30 2 C 4.4892 0.4882 0 0
M  V30 3 C 5.8229 -0.2818 0 0
M  V30 4 C 5.8229 -1.8218 0 0
M  V30 5 S 4.4892 -2.5918 0 0
M  V30 6 C 3.1555 -1.8218 0 0 CFG=2
M  V30 7 C 1.6155 -1.8218 0 0 CFG=1
M  V30 8 C 1.6155 -0.2818 0 0
M  V30 9 C 4.4892 2.0282 0 0
M  V30 10 O 5.8229 2.7982 0 0
M  V30 11 O 3.1555 2.7982 0 0
M  V30 12 O 0.5266 0.8071 0 0
M  V30 13 C 7.1566 0.4882 0 0
M  V30 14 S 8.4902 -0.2818 0 0
M  V30 15 C 9.8239 0.4882 0 0
M  V30 16 N 0.5266 -2.9108 0 0
M  V30 17 C -0.961 -2.5122 0 0
M  V30 18 O -1.3595 -1.0247 0 0
M  V30 19 C -2.0499 -3.6011 0 0
M  V30 20 C -3.5374 -3.2026 0 0
M  V30 21 C -4.6264 -4.2915 0 0
M  V30 22 C -6.1139 -3.8929 0 0
M  V30 23 C -6.5125 -2.4054 0 0
M  V30 24 C -5.4235 -1.3165 0 0
M  V30 25 C -3.936 -1.715 0 0
M  V30 26 O -1.6513 -5.0887 0 0
M  V30 END ATOM
M  V30 BEGIN BOND
M  V30 1 1 1 2
M  V30 2 2 2 3
M  V30 3 1 3 4
M  V30 4 1 4 5
M  V30 5 1 6 5
M  V30 6 1 6 1 CFG=3
M  V30 7 1 6 7
M  V30 8 1 7 8
M  V30 9 1 1 8
M  V30 10 1 9 10
M  V30 11 2 9 11
M  V30 12 1 2 9
M  V30 13 2 8 12
M  V30 14 1 14 15
M  V30 15 1 13 14
M  V30 16 1 3 13
M  V30 17 2 17 18
M  V30 18 1 17 19
M  V30 19 2 20 21
M  V30 20 1 21 22
M  V30 21 2 22 23
M  V30 22 1 23 24
M  V30 23 2 24 25
M  V30 24 1 20 25
M  V30 25 1 19 20
M  V30 26 1 19 26
M  V30 27 1 16 17
M  V30 28 1 7 16 CFG=3
M  V30 END BOND
M  V30 BEGIN COLLECTION
M  V30 MDLV30/STEREL1 ATOMS=(1 7)
M  V30 END COLLECTION
M  V30 END CTAB
M  END
>  <type>
systematic

$$$$
1-[[2-(1H-Benzotriazol-1-yl)-2-oxoethyl]imino]-3-(2-chloro-2-oxoethyl)-2,3-dihydro-1H-indene-5-carboxylic acid
  Mrv2401 11022413422D          

 29 32  0  0  0  0            999 V2000
   -2.8804   -2.7256    0.0000 C   0  0  0  0  0  0  0  0  0  0  0  0
   -2.2673   -3.2777    0.0000 C   0  0  0  0  0  0  0  0  0  0  0  0
   -2.6029   -4.0314    0.0000 C   0  0  0  0  0  0  0  0  0  0  0  0
   -2.2673   -4.7850    0.0000 C   0  0  0  0  0  0  0  0  0  0  0  0
   -2.7523   -5.4525    0.0000 C   0  0  0  0  0  0  0  0  0  0  0  0
   -3.5727   -5.3662    0.0000 C   0  0  0  0  0  0  0  0  0  0  0  0
   -3.9083   -4.6126    0.0000 C   0  0  0  0  0  0  0  0  0  0  0  0
   -3.4234   -3.9451    0.0000 C   0  0  0  0  0  0  0  0  0  0  0  0
   -3.5949   -3.1381    0.0000 C   0  0  0  0  0  0  0  0  0  0  0  0
   -4.0577   -6.0337    0.0000 C   0  0  0  0  0  0  0  0  0  0  0  0
   -4.8781   -5.9474    0.0000 O   0  0  0  0  0  0  0  0  0  0  0  0
   -3.7221   -6.7873    0.0000 O   0  0  0  0  0  0  0  0  0  0  0  0
   -4.3486   -2.8026    0.0000 C   0  0  0  0  0  0  0  0  0  0  0  0
   -5.0160   -3.2875    0.0000 C   0  0  0  0  0  0  0  0  0  0  0  0
   -4.9298   -4.1080    0.0000 O   0  0  0  0  0  0  0  0  0  0  0  0
   -5.7697   -2.9520    0.0000 Cl  0  0  0  0  0  0  0  0  0  0  0  0
   -1.4604   -3.1062    0.0000 N   0  0  0  0  0  0  0  0  0  0  0  0
   -1.2054   -2.3215    0.0000 C   0  0  0  0  0  0  0  0  0  0  0  0
   -0.3984   -2.1500    0.0000 C   0  0  0  0  0  0  0  0  0  0  0  0
    0.1536   -2.7631    0.0000 O   0  0  0  0  0  0  0  0  0  0  0  0
    0.6411   -1.1104    0.0000 C   0  0  0  0  0  0  0  0  0  0  0  0
   -0.1435   -1.3654    0.0000 N   0  0  0  0  0  0  0  0  0  0  0  0
   -0.6284   -0.6979    0.0000 N   0  0  0  0  0  0  0  0  0  0  0  0
   -0.1435   -0.0305    0.0000 N   0  0  0  0  0  0  0  0  0  0  0  0
    0.6411   -0.2854    0.0000 C   0  0  0  0  0  0  0  0  0  0  0  0
    1.3556    0.1271    0.0000 C   0  0  0  0  0  0  0  0  0  0  0  0
    2.0701   -0.2854    0.0000 C   0  0  0  0  0  0  0  0  0  0  0  0
    2.0701   -1.1104    0.0000 C   0  0  0  0  0  0  0  0  0  0  0  0
    1.3556   -1.5229    0.0000 C   0  0  0  0  0  0  0  0  0  0  0  0
  1  2  1  0  0  0  0
  2  3  1  0  0  0  0
  3  4  2  0  0  0  0
  4  5  1  0  0  0  0
  5  6  2  0  0  0  0
  6  7  1  0  0  0  0
  7  8  2  0  0  0  0
  3  8  1  0  0  0  0
  8  9  1  0  0  0  0
  1  9  1  0  0  0  0
 10 11  1  0  0  0  0
 10 12  2  0  0  0  0
  6 10  1  0  0  0  0
 13 14  1  0  0  0  0
 14 15  2  0  0  0  0
 14 16  1  0  0  0  0
  9 13  1  0  0  0  0
 18 19  1  0  0  0  0
 19 20  2  0  0  0  0
 21 22  1  0  0  0  0
 22 23  1  0  0  0  0
 23 24  2  0  0  0  0
 24 25  1  0  0  0  0
 21 25  2  0  0  0  0
 25 26  1  0  0  0  0
 26 27  2  0  0  0  0
 27 28  1  0  0  0  0
 28 29  2  0  0  0  0
 21 29  1  0  0  0  0
 19 22  1  0  0  0  0
 17 18  1  4  0  0  0
  2 17  2  0  0  0  0
M  END
>  <type>
systematic

$$$$
2,3-Dihydro-3-[2-(4-nitrobenzoyl)hydrazinylidene]-2-oxo-1H-indole-6-carboxylic acid
  Mrv2401 11022413432D          

 26 28  0  0  0  0            999 V2000
    0.6538   -0.6979    0.0000 C   0  0  0  0  0  0  0  0  0  0  0  0
    1.1387   -0.0305    0.0000 C   0  0  0  0  0  0  0  0  0  0  0  0
    1.9233   -0.2854    0.0000 C   0  0  0  0  0  0  0  0  0  0  0  0
    2.6378    0.1271    0.0000 C   0  0  0  0  0  0  0  0  0  0  0  0
    3.3523   -0.2854    0.0000 C   0  0  0  0  0  0  0  0  0  0  0  0
    3.3523   -1.1104    0.0000 C   0  0  0  0  0  0  0  0  0  0  0  0
    2.6378   -1.5229    0.0000 C   0  0  0  0  0  0  0  0  0  0  0  0
    1.9233   -1.1104    0.0000 C   0  0  0  0  0  0  0  0  0  0  0  0
    1.1387   -1.3654    0.0000 N   0  0  0  0  0  0  0  0  0  0  0  0
    4.0668   -1.5229    0.0000 C   0  0  0  0  0  0  0  0  0  0  0  0
    4.0668   -2.3479    0.0000 O   0  0  0  0  0  0  0  0  0  0  0  0
    4.7812   -1.1104    0.0000 O   0  0  0  0  0  0  0  0  0  0  0  0
   -0.1712   -0.6979    0.0000 O   0  0  0  0  0  0  0  0  0  0  0  0
    0.8838    0.7541    0.0000 N   0  0  0  0  0  0  0  0  0  0  0  0
    0.0768    0.9256    0.0000 N   0  0  0  0  0  0  0  0  0  0  0  0
   -0.1781    1.7103    0.0000 C   0  0  0  0  0  0  0  0  0  0  0  0
    0.3739    2.3234    0.0000 O   0  0  0  0  0  0  0  0  0  0  0  0
   -0.9851    1.8818    0.0000 C   0  0  0  0  0  0  0  0  0  0  0  0
   -1.5371    1.2687    0.0000 C   0  0  0  0  0  0  0  0  0  0  0  0
   -2.3441    1.4402    0.0000 C   0  0  0  0  0  0  0  0  0  0  0  0
   -2.5990    2.2248    0.0000 C   0  0  0  0  0  0  0  0  0  0  0  0
   -2.0470    2.8379    0.0000 C   0  0  0  0  0  0  0  0  0  0  0  0
   -1.2400    2.6664    0.0000 C   0  0  0  0  0  0  0  0  0  0  0  0
   -3.4060    2.3964    0.0000 N   0  3  0  0  0  0  0  0  0  0  0  0
   -3.9580    1.7833    0.0000 O   0  0  0  0  0  0  0  0  0  0  0  0
   -3.6610    3.1810    0.0000 O   0  5  0  0  0  0  0  0  0  0  0  0
  1  2  1  0  0  0  0
  2  3  1  0  0  0  0
  3  4  2  0  0  0  0
  4  5  1  0  0  0  0
  5  6  2  0  0  0  0
  6  7  1  0  0  0  0
  7  8  2  0  0  0  0
  3  8  1  0  0  0  0
  8  9  1  0  0  0  0
  1  9  1  0  0  0  0
 10 11  1  0  0  0  0
 10 12  2  0  0  0  0
  6 10  1  0  0  0  0
  1 13  2  0  0  0  0
 14 15  1  4  0  0  0
 16 17  2  0  0  0  0
 16 18  1  0  0  0  0
 18 19  2  0  0  0  0
 19 20  1  0  0  0  0
 20 21  2  0  0  0  0
 21 22  1  0  0  0  0
 22 23  2  0  0  0  0
 18 23  1  0  0  0  0
 24 25  2  0  0  0  0
 24 26  1  0  0  0  0
 21 24  1  0  0  0  0
 15 16  1  0  0  0  0
  2 14  2  0  0  0  0
M  CHG  2  24   1  26  -1
M  END
>  <type>
systematic

$$$$
5-Thia-1-azabicyclo[4.2.0]oct-2-ene-2-carboxylic acid, 3-(azidomethyl)-7-[[hydroxy(4-hydroxyphenyl)acetyl]amino]-8-oxo-, [6 R-(6α,7β)]-
  Mrv2401 11022413442D          

 28 30  0  0  1  0            999 V2000
    1.6905   -0.1510    0.0000 N   0  0  0  0  0  0  0  0  0  0  0  0
    2.4049    0.2615    0.0000 C   0  0  0  0  0  0  0  0  0  0  0  0
    3.1194   -0.1510    0.0000 C   0  0  0  0  0  0  0  0  0  0  0  0
    3.1194   -0.9760    0.0000 C   0  0  0  0  0  0  0  0  0  0  0  0
    2.4049   -1.3885    0.0000 S   0  0  0  0  0  0  0  0  0  0  0  0
    1.6905   -0.9760    0.0000 C   0  0  2  0  0  0  0  0  0  0  0  0
    0.8655   -0.9760    0.0000 C   0  0  2  0  0  0  0  0  0  0  0  0
    0.8655   -0.1510    0.0000 C   0  0  0  0  0  0  0  0  0  0  0  0
    2.4049    1.0865    0.0000 C   0  0  0  0  0  0  0  0  0  0  0  0
    3.1194    1.4990    0.0000 O   0  0  0  0  0  0  0  0  0  0  0  0
    1.6905    1.4990    0.0000 O   0  0  0  0  0  0  0  0  0  0  0  0
    0.2821    0.4324    0.0000 O   0  0  0  0  0  0  0  0  0  0  0  0
    0.2821   -1.5593    0.0000 N   0  0  0  0  0  0  0  0  0  0  0  0
   -0.5148   -1.3458    0.0000 C   0  0  0  0  0  0  0  0  0  0  0  0
   -0.7283   -0.5489    0.0000 O   0  0  0  0  0  0  0  0  0  0  0  0
   -1.0982   -1.9292    0.0000 C   0  0  0  0  0  0  0  0  0  0  0  0
   -1.8950   -1.7157    0.0000 C   0  0  0  0  0  0  0  0  0  0  0  0
   -2.4784   -2.2990    0.0000 C   0  0  0  0  0  0  0  0  0  0  0  0
   -3.2753   -2.0855    0.0000 C   0  0  0  0  0  0  0  0  0  0  0  0
   -3.4888   -1.2886    0.0000 C   0  0  0  0  0  0  0  0  0  0  0  0
   -2.9055   -0.7052    0.0000 C   0  0  0  0  0  0  0  0  0  0  0  0
   -2.1086   -0.9188    0.0000 C   0  0  0  0  0  0  0  0  0  0  0  0
   -4.2857   -1.0751    0.0000 O   0  0  0  0  0  0  0  0  0  0  0  0
   -0.8846   -2.7261    0.0000 O   0  0  0  0  0  0  0  0  0  0  0  0
    3.8339    0.2615    0.0000 C   0  0  0  0  0  0  0  0  0  0  0  0
    4.5483   -0.1510    0.0000 N   0  0  0  0  0  0  0  0  0  0  0  0
    5.2628    0.2615    0.0000 N   0  3  0  0  0  0  0  0  0  0  0  0
    5.9773    0.6740    0.0000 N   0  5  0  0  0  0  0  0  0  0  0  0
  1  2  1  0  0  0  0
  2  3  2  0  0  0  0
  3  4  1  0  0  0  0
  4  5  1  0  0  0  0
  6  5  1  0  0  0  0
  6  1  1  6  0  0  0
  6  7  1  0  0  0  0
  7  8  1  0  0  0  0
  1  8  1  0  0  0  0
  9 10  1  0  0  0  0
  9 11  2  0  0  0  0
  2  9  1  0  0  0  0
  8 12  2  0  0  0  0
 14 15  2  0  0  0  0
 14 16  1  0  0  0  0
 17 18  2  0  0  0  0
 18 19  1  0  0  0  0
 19 20  2  0  0  0  0
 20 21  1  0  0  0  0
 21 22  2  0  0  0  0
 17 22  1  0  0  0  0
 20 23  1  0  0  0  0
 16 17  1  0  0  0  0
 16 24  1  0  0  0  0
 13 14  1  0  0  0  0
  7 13  1  1  0  0  0
 26 27  2  0  0  0  0
 27 28  2  0  0  0  0
 25 26  1  0  0  0  0
  3 25  1  0  0  0  0
M  CHG  2  27   1  28  -1
M  END
>  <type>
systematic

$$$$
5-Thia-1-azabicyclo[4.2.0]oct-2-ene-2-carboxylic acid, 7-[(hydroxyphenylacetyl)amino]-8-oxo-3-[(1-oxopropoxy)methyl]-,[6 R-[6α,7β(R*)]]-
  Mrv2401 11022413452D          

  0  0  0     0  0            999 V3000
M  V30 BEGIN CTAB
M  V30 COUNTS 29 31 0 0 1
M  V30 BEGIN ATOM
M  V30 1 N -6.6684 3.85 0 0
M  V30 2 C -5.3347 4.62 0 0
M  V30 3 C -4.001 3.85 0 0
M  V30 4 C -4.001 2.31 0 0
M  V30 5 S -5.3347 1.54 0 0
M  V30 6 C -6.6684 2.31 0 0 CFG=2
M  V30 7 C -8.2084 2.31 0 0 CFG=1
M  V30 8 C -8.2084 3.85 0 0
M  V30 9 C -5.3347 6.16 0 0
M  V30 10 O -4.001 6.93 0 0
M  V30 11 O -6.6684 6.93 0 0
M  V30 12 C -2.6674 4.62 0 0
M  V30 13 O -1.3337 3.85 0 0
M  V30 14 C 0 4.62 0 0
M  V30 15 C 1.3337 3.85 0 0
M  V30 16 C 2.6674 4.62 0 0
M  V30 17 O 0 6.16 0 0
M  V30 18 O -9.2973 4.9389 0 0
M  V30 19 N -9.2973 1.2211 0 0
M  V30 20 C -10.7849 1.6196 0 0
M  V30 21 O -11.1834 3.1072 0 0
M  V30 22 C -11.8738 0.5307 0 0
M  V30 23 C -13.3613 0.9293 0 0
M  V30 24 C -14.4503 -0.1597 0 0
M  V30 25 C -15.9378 0.2389 0 0
M  V30 26 C -16.3364 1.7264 0 0
M  V30 27 C -15.2474 2.8154 0 0
M  V30 28 C -13.7599 2.4168 0 0
M  V30 29 O -11.4752 -0.9568 0 0
M  V30 END ATOM
M  V30 BEGIN BOND
M  V30 1 1 1 2
M  V30 2 2 2 3
M  V30 3 1 3 4
M  V30 4 1 4 5
M  V30 5 1 6 5
M  V30 6 1 6 1 CFG=3
M  V30 7 1 6 7
M  V30 8 1 7 8
M  V30 9 1 1 8
M  V30 10 1 9 10
M  V30 11 2 9 11
M  V30 12 1 2 9
M  V30 13 1 14 15
M  V30 14 1 15 16
M  V30 15 2 14 17
M  V30 16 1 13 14
M  V30 17 1 12 13
M  V30 18 1 3 12
M  V30 19 2 8 18
M  V30 20 2 20 21
M  V30 21 1 20 22
M  V30 22 2 23 24
M  V30 23 1 24 25
M  V30 24 2 25 26
M  V30 25 1 26 27
M  V30 26 2 27 28
M  V30 27 1 23 28
M  V30 28 1 22 23
M  V30 29 1 22 29
M  V30 30 1 19 20
M  V30 31 1 7 19 CFG=3
M  V30 END BOND
M  V30 BEGIN COLLECTION
M  V30 MDLV30/STEREL1 ATOMS=(1 7)
M  V30 END COLLECTION
M  V30 END CTAB
M  END
>  <type>
systematic

$$$$

  Mrv2401 11022413492D          

 27 29  0  0  1  0            999 V2000
    1.6905   -0.1510    0.0000 N   0  0  0  0  0  0  0  0  0  0  0  0
    2.4049    0.2615    0.0000 C   0  0  0  0  0  0  0  0  0  0  0  0
    3.1194   -0.1510    0.0000 C   0  0  0  0  0  0  0  0  0  0  0  0
    3.1194   -0.9760    0.0000 C   0  0  0  0  0  0  0  0  0  0  0  0
    2.4049   -1.3885    0.0000 S   0  0  0  0  0  0  0  0  0  0  0  0
    1.6905   -0.9760    0.0000 C   0  0  2  0  0  0  0  0  0  0  0  0
    0.8655   -0.9760    0.0000 C   0  0  2  0  0  0  0  0  0  0  0  0
    0.8655   -0.1510    0.0000 C   0  0  0  0  0  0  0  0  0  0  0  0
    2.4049    1.0865    0.0000 C   0  0  0  0  0  0  0  0  0  0  0  0
    3.1194    1.4990    0.0000 O   0  0  0  0  0  0  0  0  0  0  0  0
    1.6905    1.4990    0.0000 O   0  0  0  0  0  0  0  0  0  0  0  0
    0.2821    0.4324    0.0000 O   0  0  0  0  0  0  0  0  0  0  0  0
    0.2821   -1.5593    0.0000 N   0  0  0  0  0  0  0  0  0  0  0  0
   -0.5148   -1.3458    0.0000 C   0  0  0  0  0  0  0  0  0  0  0  0
   -0.7283   -0.5489    0.0000 O   0  0  0  0  0  0  0  0  0  0  0  0
   -1.0982   -1.9292    0.0000 C   0  0  0  0  0  0  0  0  0  0  0  0
   -1.8950   -1.7157    0.0000 C   0  0  0  0  0  0  0  0  0  0  0  0
   -2.4784   -2.2990    0.0000 C   0  0  0  0  0  0  0  0  0  0  0  0
   -3.2753   -2.0855    0.0000 C   0  0  0  0  0  0  0  0  0  0  0  0
   -3.4888   -1.2886    0.0000 C   0  0  0  0  0  0  0  0  0  0  0  0
   -2.9055   -0.7052    0.0000 C   0  0  0  0  0  0  0  0  0  0  0  0
   -2.1086   -0.9188    0.0000 C   0  0  0  0  0  0  0  0  0  0  0  0
   -0.8846   -2.7261    0.0000 O   0  0  0  0  0  0  0  0  0  0  0  0
    3.8339    0.2615    0.0000 C   0  0  0  0  0  0  0  0  0  0  0  0
    4.5483   -0.1510    0.0000 N   0  0  0  0  0  0  0  0  0  0  0  0
    5.2628    0.2615    0.0000 N   0  3  0  0  0  0  0  0  0  0  0  0
    5.9773    0.6740    0.0000 N   0  5  0  0  0  0  0  0  0  0  0  0
  1  2  1  0  0  0  0
  2  3  2  0  0  0  0
  3  4  1  0  0  0  0
  4  5  1  0  0  0  0
  6  5  1  0  0  0  0
  6  1  1  6  0  0  0
  6  7  1  0  0  0  0
  7  8  1  0  0  0  0
  1  8  1  0  0  0  0
  9 10  1  0  0  0  0
  9 11  2  0  0  0  0
  2  9  1  0  0  0  0
  8 12  2  0  0  0  0
 14 15  2  0  0  0  0
 14 16  1  0  0  0  0
 17 18  2  0  0  0  0
 18 19  1  0  0  0  0
 19 20  2  0  0  0  0
 20 21  1  0  0  0  0
 21 22  2  0  0  0  0
 17 22  1  0  0  0  0
 16 17  1  0  0  0  0
 16 23  2  0  0  0  0
 13 14  1  0  0  0  0
  7 13  1  1  0  0  0
 25 26  2  0  0  0  0
 26 27  2  0  0  0  0
 24 25  1  0  0  0  0
  3 24  1  0  0  0  0
M  CHG  2  26   1  27  -1
M  END
>  <type>
systematic

$$$$
4-[[2-(4,9-Dimethoxy-7-methyl-5-oxo-5H-furo[3,2- g][1]benzopyran-6-yl)-2-oxoethyl]amino]benzoic acid
  Mrv2401 11022413502D          

 32 35  0  0  0  0            999 V2000
    7.0714   -2.3479    0.0000 C   0  0  0  0  0  0  0  0  0  0  0  0
    7.7858   -2.7604    0.0000 C   0  0  0  0  0  0  0  0  0  0  0  0
    8.5003   -2.3479    0.0000 O   0  0  0  0  0  0  0  0  0  0  0  0
    7.7858   -3.5854    0.0000 O   0  0  0  0  0  0  0  0  0  0  0  0
    6.3569   -2.7604    0.0000 C   0  0  0  0  0  0  0  0  0  0  0  0
    5.6424   -2.3479    0.0000 C   0  0  0  0  0  0  0  0  0  0  0  0
    5.6424   -1.5229    0.0000 C   0  0  0  0  0  0  0  0  0  0  0  0
    6.3569   -1.1104    0.0000 C   0  0  0  0  0  0  0  0  0  0  0  0
    7.0714   -1.5229    0.0000 C   0  0  0  0  0  0  0  0  0  0  0  0
    4.9279   -1.1104    0.0000 N   0  0  0  0  0  0  0  0  0  0  0  0
    4.2135   -1.5229    0.0000 C   0  0  0  0  0  0  0  0  0  0  0  0
    3.4990   -1.1104    0.0000 C   0  0  0  0  0  0  0  0  0  0  0  0
    3.4990   -0.2854    0.0000 O   0  0  0  0  0  0  0  0  0  0  0  0
    0.6411   -2.7604    0.0000 C   0  0  0  0  0  0  0  0  0  0  0  0
    1.3556   -2.3479    0.0000 C   0  0  0  0  0  0  0  0  0  0  0  0
    1.3556   -1.5229    0.0000 C   0  0  0  0  0  0  0  0  0  0  0  0
    0.6411   -1.1104    0.0000 C   0  0  0  0  0  0  0  0  0  0  0  0
    2.0701   -1.1104    0.0000 C   0  0  0  0  0  0  0  0  0  0  0  0
    2.7845   -1.5229    0.0000 C   0  0  0  0  0  0  0  0  0  0  0  0
    2.7845   -2.3479    0.0000 C   0  0  0  0  0  0  0  0  0  0  0  0
    2.0701   -2.7604    0.0000 O   0  0  0  0  0  0  0  0  0  0  0  0
   -0.8580   -2.6029    0.0000 O   0  0  0  0  0  0  0  0  0  0  0  0
   -0.0734   -2.3479    0.0000 C   0  0  0  0  0  0  0  0  0  0  0  0
   -0.0734   -1.5229    0.0000 C   0  0  0  0  0  0  0  0  0  0  0  0
   -0.8580   -1.2680    0.0000 C   0  0  0  0  0  0  0  0  0  0  0  0
   -1.3429   -1.9354    0.0000 C   0  0  0  0  0  0  0  0  0  0  0  0
    2.0701   -0.2854    0.0000 O   0  0  0  0  0  0  0  0  0  0  0  0
    3.4990   -2.7604    0.0000 C   0  0  0  0  0  0  0  0  0  0  0  0
    0.6411   -0.2854    0.0000 O   0  0  0  0  0  0  0  0  0  0  0  0
   -0.0734    0.1271    0.0000 C   0  0  0  0  0  0  0  0  0  0  0  0
    0.6411   -3.5854    0.0000 O   0  0  0  0  0  0  0  0  0  0  0  0
    1.3556   -3.9979    0.0000 C   0  0  0  0  0  0  0  0  0  0  0  0
  1  2  1  0  0  0  0
  2  3  1  0  0  0  0
  2  4  2  0  0  0  0
  1  5  2  0  0  0  0
  5  6  1  0  0  0  0
  6  7  2  0  0  0  0
  7  8  1  0  0  0  0
  8  9  2  0  0  0  0
  1  9  1  0  0  0  0
 11 12  1  0  0  0  0
 12 13  2  0  0  0  0
 23 14  2  0  0  0  0
 14 15  1  0  0  0  0
 15 16  2  0  0  0  0
 16 17  1  0  0  0  0
 17 24  2  0  0  0  0
 16 18  1  0  0  0  0
 18 19  1  0  0  0  0
 19 20  2  0  0  0  0
 20 21  1  0  0  0  0
 15 21  1  0  0  0  0
 22 23  1  0  0  0  0
 23 24  1  0  0  0  0
 24 25  1  0  0  0  0
 25 26  2  0  0  0  0
 22 26  1  0  0  0  0
 18 27  2  0  0  0  0
 20 28  1  0  0  0  0
 29 30  1  0  0  0  0
 17 29  1  0  0  0  0
 31 32  1  0  0  0  0
 14 31  1  0  0  0  0
 12 19  1  0  0  0  0
 10 11  1  0  0  0  0
  7 10  1  0  0  0  0
M  END
>  <type>
systematic

$$$$
5-Thia-1-azabicyclo[4.2.0]oct-2-ene-2-carboxylic acid, 7-[(hydroxyphenylacetyl)amino]-4-(2-methoxy-2-oxoethylidene)-3-methyl-8-oxo-, [6 R-(4Z,6α,7β)]-
  Mrv2401 11022413532D          

 29 31  0  0  1  0            999 V2000
    1.6905   -0.1510    0.0000 N   0  0  0  0  0  0  0  0  0  0  0  0
    2.4049    0.2615    0.0000 C   0  0  0  0  0  0  0  0  0  0  0  0
    3.1194   -0.1510    0.0000 C   0  0  0  0  0  0  0  0  0  0  0  0
    3.1194   -0.9760    0.0000 C   0  0  0  0  0  0  0  0  0  0  0  0
    2.4049   -1.3885    0.0000 S   0  0  0  0  0  0  0  0  0  0  0  0
    1.6905   -0.9760    0.0000 C   0  0  2  0  0  0  0  0  0  0  0  0
    0.8655   -0.9760    0.0000 C   0  0  0  0  0  0  0  0  0  0  0  0
    0.8655   -0.1510    0.0000 C   0  0  0  0  0  0  0  0  0  0  0  0
    2.4049    1.0865    0.0000 C   0  0  0  0  0  0  0  0  0  0  0  0
    3.1194    1.4990    0.0000 O   0  0  0  0  0  0  0  0  0  0  0  0
    1.6905    1.4990    0.0000 O   0  0  0  0  0  0  0  0  0  0  0  0
    0.2821    0.4324    0.0000 O   0  0  0  0  0  0  0  0  0  0  0  0
    3.8339    0.2615    0.0000 C   0  0  0  0  0  0  0  0  0  0  0  0
    0.2821   -1.5593    0.0000 C   0  0  0  0  0  0  0  0  0  0  0  0
    0.4956   -2.3562    0.0000 C   0  0  0  0  0  0  0  0  0  0  0  0
   -0.0877   -2.9396    0.0000 O   0  0  0  0  0  0  0  0  0  0  0  0
    1.2925   -2.5698    0.0000 O   0  0  0  0  0  0  0  0  0  0  0  0
    1.5060   -3.3667    0.0000 C   0  0  0  0  0  0  0  0  0  0  0  0
   -0.5148   -1.3458    0.0000 N   0  0  0  0  0  0  0  0  0  0  0  0
   -0.7283   -0.5489    0.0000 C   0  0  0  0  0  0  0  0  0  0  0  0
   -0.1450    0.0344    0.0000 O   0  0  0  0  0  0  0  0  0  0  0  0
   -1.5252   -0.3354    0.0000 C   0  0  0  0  0  0  0  0  0  0  0  0
   -1.7387    0.4615    0.0000 C   0  0  0  0  0  0  0  0  0  0  0  0
   -2.5356    0.6750    0.0000 C   0  0  0  0  0  0  0  0  0  0  0  0
   -2.7492    1.4719    0.0000 C   0  0  0  0  0  0  0  0  0  0  0  0
   -2.1658    2.0553    0.0000 C   0  0  0  0  0  0  0  0  0  0  0  0
   -1.3689    1.8417    0.0000 C   0  0  0  0  0  0  0  0  0  0  0  0
   -1.1554    1.0448    0.0000 C   0  0  0  0  0  0  0  0  0  0  0  0
   -2.1086   -0.9188    0.0000 O   0  0  0  0  0  0  0  0  0  0  0  0
  1  2  1  0  0  0  0
  2  3  2  0  0  0  0
  3  4  1  0  0  0  0
  4  5  1  0  0  0  0
  6  5  1  0  0  0  0
  6  1  1  6  0  0  0
  6  7  1  0  0  0  0
  7  8  1  4  0  0  0
  1  8  1  0  0  0  0
  9 10  1  0  0  0  0
  9 11  2  0  0  0  0
  2  9  1  0  0  0  0
  8 12  2  0  0  0  0
  3 13  1  0  0  0  0
 14 15  1  0  0  0  0
 15 16  2  0  0  0  0
 17 18  1  0  0  0  0
 15 17  1  0  0  0  0
 20 21  2  0  0  0  0
 20 22  1  0  0  0  0
 23 24  2  0  0  0  0
 24 25  1  0  0  0  0
 25 26  2  0  0  0  0
 26 27  1  0  0  0  0
 27 28  2  0  0  0  0
 23 28  1  0  0  0  0
 22 23  1  0  0  0  0
 22 29  1  0  0  0  0
 19 20  1  0  0  0  0
 14 19  1  0  0  0  0
  7 14  2  0  0  0  0
M  END
>  <Ambiguous>
ambiguous

>  <type>
systematic

$$$$

  Mrv2401 11022413582D          

 31 33  0  0  1  0            999 V2000
    1.6905   -0.1510    0.0000 N   0  0  0  0  0  0  0  0  0  0  0  0
    2.4049    0.2615    0.0000 C   0  0  0  0  0  0  0  0  0  0  0  0
    3.1194   -0.1510    0.0000 C   0  0  0  0  0  0  0  0  0  0  0  0
    3.1194   -0.9760    0.0000 C   0  0  0  0  0  0  0  0  0  0  0  0
    2.4049   -1.3885    0.0000 S   0  0  0  0  0  0  0  0  0  0  0  0
    1.6905   -0.9760    0.0000 C   0  0  2  0  0  0  0  0  0  0  0  0
    0.8655   -0.9760    0.0000 C   0  0  0  0  0  0  0  0  0  0  0  0
    0.8655   -0.1510    0.0000 C   0  0  0  0  0  0  0  0  0  0  0  0
    2.4049    1.0865    0.0000 C   0  0  0  0  0  0  0  0  0  0  0  0
    3.1194    1.4990    0.0000 O   0  0  0  0  0  0  0  0  0  0  0  0
    1.6905    1.4990    0.0000 O   0  0  0  0  0  0  0  0  0  0  0  0
    0.2821    0.4324    0.0000 O   0  0  0  0  0  0  0  0  0  0  0  0
    3.8339    0.2615    0.0000 C   0  0  0  0  0  0  0  0  0  0  0  0
    0.2821   -1.5593    0.0000 C   0  0  0  0  0  0  0  0  0  0  0  0
    0.4956   -2.3562    0.0000 C   0  0  0  0  0  0  0  0  0  0  0  0
   -0.0877   -2.9396    0.0000 O   0  0  0  0  0  0  0  0  0  0  0  0
    1.2925   -2.5698    0.0000 O   0  0  0  0  0  0  0  0  0  0  0  0
    1.5060   -3.3667    0.0000 C   0  0  0  0  0  0  0  0  0  0  0  0
   -0.5148   -1.3458    0.0000 N   0  0  0  0  0  0  0  0  0  0  0  0
   -0.7283   -0.5489    0.0000 C   0  0  0  0  0  0  0  0  0  0  0  0
   -0.1450    0.0344    0.0000 O   0  0  0  0  0  0  0  0  0  0  0  0
   -1.5252   -0.3354    0.0000 C   0  0  2  0  0  0  0  0  0  0  0  0
   -1.7387    0.4615    0.0000 C   0  0  0  0  0  0  0  0  0  0  0  0
   -2.5356    0.6750    0.0000 C   0  0  0  0  0  0  0  0  0  0  0  0
   -2.7492    1.4719    0.0000 C   0  0  0  0  0  0  0  0  0  0  0  0
   -2.1658    2.0553    0.0000 C   0  0  0  0  0  0  0  0  0  0  0  0
   -1.3689    1.8417    0.0000 C   0  0  0  0  0  0  0  0  0  0  0  0
   -1.1554    1.0448    0.0000 C   0  0  0  0  0  0  0  0  0  0  0  0
   -2.1086   -0.9188    0.0000 O   0  0  0  0  0  0  0  0  0  0  0  0
    4.5483   -0.1510    0.0000 C   0  0  0  0  0  0  0  0  0  0  0  0
    5.2628    0.2615    0.0000 Cl  0  0  0  0  0  0  0  0  0  0  0  0
  1  2  1  0  0  0  0
  2  3  2  0  0  0  0
  3  4  1  0  0  0  0
  4  5  1  0  0  0  0
  6  5  1  0  0  0  0
  6  1  1  6  0  0  0
  6  7  1  0  0  0  0
  7  8  1  4  0  0  0
  1  8  1  0  0  0  0
  9 10  1  0  0  0  0
  9 11  2  0  0  0  0
  2  9  1  0  0  0  0
  8 12  2  0  0  0  0
  3 13  1  0  0  0  0
 14 15  1  0  0  0  0
 15 16  2  0  0  0  0
 17 18  1  0  0  0  0
 15 17  1  0  0  0  0
 20 21  2  0  0  0  0
 20 22  1  0  0  0  0
 23 24  2  0  0  0  0
 24 25  1  0  0  0  0
 25 26  2  0  0  0  0
 26 27  1  0  0  0  0
 27 28  2  0  0  0  0
 23 28  1  0  0  0  0
 22 23  1  0  0  0  0
 22 29  1  1  0  0  0
 19 20  1  0  0  0  0
 14 19  1  0  0  0  0
  7 14  2  0  0  0  0
 13 30  2  0  0  0  0
 30 31  1  0  0  0  0
M  END
>  <Ambiguous>
ambiguous

>  <type>
systematic

$$$$
5-Thia-1-azabicyclo[4.2.0]oct-2-ene-2-carboxylic acid, 7-[(hydroxy-2-naphthalenylacetyl)amino]-3-methyl-8-oxo-, [6 R-(6α,7β)]-
  Mrv2401 11022413592D          

 28 31  0  0  1  0            999 V2000
    3.8683   -4.7084    0.0000 N   0  0  0  0  0  0  0  0  0  0  0  0
    4.4517   -5.2917    0.0000 C   0  0  0  0  0  0  0  0  0  0  0  0
    4.2381   -6.0886    0.0000 C   0  0  0  0  0  0  0  0  0  0  0  0
    3.4412   -6.3021    0.0000 C   0  0  0  0  0  0  0  0  0  0  0  0
    2.8579   -5.7188    0.0000 S   0  0  0  0  0  0  0  0  0  0  0  0
    3.0714   -4.9219    0.0000 C   0  0  2  0  0  0  0  0  0  0  0  0
    2.8579   -4.1250    0.0000 C   0  0  2  0  0  0  0  0  0  0  0  0
    3.6548   -3.9115    0.0000 C   0  0  0  0  0  0  0  0  0  0  0  0
    5.2486   -5.0782    0.0000 C   0  0  0  0  0  0  0  0  0  0  0  0
    5.8319   -5.6616    0.0000 O   0  0  0  0  0  0  0  0  0  0  0  0
    5.4621   -4.2813    0.0000 O   0  0  0  0  0  0  0  0  0  0  0  0
    4.0673   -3.1970    0.0000 O   0  0  0  0  0  0  0  0  0  0  0  0
    4.8215   -6.6720    0.0000 C   0  0  0  0  0  0  0  0  0  0  0  0
    2.1434   -3.7125    0.0000 N   0  0  0  0  0  0  0  0  0  0  0  0
    2.1434   -2.8875    0.0000 C   0  0  0  0  0  0  0  0  0  0  0  0
    2.8579   -2.4750    0.0000 O   0  0  0  0  0  0  0  0  0  0  0  0
    1.4289   -2.4750    0.0000 C   0  0  0  0  0  0  0  0  0  0  0  0
   -0.7145   -1.2375    0.0000 C   0  0  0  0  0  0  0  0  0  0  0  0
    0.0000   -1.6500    0.0000 C   0  0  0  0  0  0  0  0  0  0  0  0
    0.7145   -1.2375    0.0000 C   0  0  0  0  0  0  0  0  0  0  0  0
    0.7145   -0.4125    0.0000 C   0  0  0  0  0  0  0  0  0  0  0  0
    0.0000   -0.0000    0.0000 C   0  0  0  0  0  0  0  0  0  0  0  0
   -0.7145   -0.4125    0.0000 C   0  0  0  0  0  0  0  0  0  0  0  0
    1.4289   -0.0000    0.0000 C   0  0  0  0  0  0  0  0  0  0  0  0
    2.1434   -0.4125    0.0000 C   0  0  0  0  0  0  0  0  0  0  0  0
    2.1434   -1.2375    0.0000 C   0  0  0  0  0  0  0  0  0  0  0  0
    1.4289   -1.6500    0.0000 C   0  0  0  0  0  0  0  0  0  0  0  0
    0.7145   -2.8875    0.0000 O   0  0  0  0  0  0  0  0  0  0  0  0
  1  2  1  0  0  0  0
  2  3  2  0  0  0  0
  3  4  1  0  0  0  0
  4  5  1  0  0  0  0
  6  5  1  0  0  0  0
  6  1  1  6  0  0  0
  6  7  1  0  0  0  0
  7  8  1  0  0  0  0
  1  8  1  0  0  0  0
  9 10  1  0  0  0  0
  9 11  2  0  0  0  0
  2  9  1  0  0  0  0
  8 12  2  0  0  0  0
  3 13  1  0  0  0  0
 15 16  2  0  0  0  0
 15 17  1  0  0  0  0
 18 19  2  0  0  0  0
 19 20  1  0  0  0  0
 20 21  1  0  0  0  0
 21 22  1  0  0  0  0
 22 23  2  0  0  0  0
 18 23  1  0  0  0  0
 21 24  2  0  0  0  0
 24 25  1  0  0  0  0
 25 26  2  0  0  0  0
 26 27  1  0  0  0  0
 20 27  2  0  0  0  0
 17 27  1  0  0  0  0
 17 28  1  0  0  0  0
 14 15  1  0  0  0  0
  7 14  1  1  0  0  0
M  END
>  <type>
systematic

$$$$
4-[[2-Hydroxy-2-(5,6,7,8-tetrahydro-5,5,8,8-tetramethyl-2-naphthalenyl)acetyl]amino]-3-methylbenzoic acid
  Mrv2401 11022413592D          

 29 31  0  0  0  0            999 V2000
    3.5724   -5.3625    0.0000 C   0  0  0  0  0  0  0  0  0  0  0  0
    3.5724   -6.1875    0.0000 C   0  0  0  0  0  0  0  0  0  0  0  0
    4.2868   -6.6000    0.0000 O   0  0  0  0  0  0  0  0  0  0  0  0
    2.8579   -6.6000    0.0000 O   0  0  0  0  0  0  0  0  0  0  0  0
    2.8579   -4.9500    0.0000 C   0  0  0  0  0  0  0  0  0  0  0  0
    2.8579   -4.1250    0.0000 C   0  0  0  0  0  0  0  0  0  0  0  0
    3.5724   -3.7125    0.0000 C   0  0  0  0  0  0  0  0  0  0  0  0
    4.2868   -4.1250    0.0000 C   0  0  0  0  0  0  0  0  0  0  0  0
    4.2868   -4.9500    0.0000 C   0  0  0  0  0  0  0  0  0  0  0  0
    2.1434   -3.7125    0.0000 C   0  0  0  0  0  0  0  0  0  0  0  0
    3.5724   -2.8875    0.0000 N   0  0  0  0  0  0  0  0  0  0  0  0
    2.8579   -2.4750    0.0000 C   0  0  0  0  0  0  0  0  0  0  0  0
    2.1434   -2.8875    0.0000 O   0  0  0  0  0  0  0  0  0  0  0  0
    2.8579   -1.6500    0.0000 C   0  0  0  0  0  0  0  0  0  0  0  0
   -0.7145   -1.2375    0.0000 C   0  0  0  0  0  0  0  0  0  0  0  0
    0.0000   -1.6500    0.0000 C   0  0  0  0  0  0  0  0  0  0  0  0
    0.7145   -1.2375    0.0000 C   0  0  0  0  0  0  0  0  0  0  0  0
    0.7145   -0.4125    0.0000 C   0  0  0  0  0  0  0  0  0  0  0  0
    0.0000   -0.0000    0.0000 C   0  0  0  0  0  0  0  0  0  0  0  0
   -0.7145   -0.4125    0.0000 C   0  0  0  0  0  0  0  0  0  0  0  0
    1.4289   -0.0000    0.0000 C   0  0  0  0  0  0  0  0  0  0  0  0
    2.1434   -0.4125    0.0000 C   0  0  0  0  0  0  0  0  0  0  0  0
    2.1434   -1.2375    0.0000 C   0  0  0  0  0  0  0  0  0  0  0  0
    1.4289   -1.6500    0.0000 C   0  0  0  0  0  0  0  0  0  0  0  0
    0.3873    0.7284    0.0000 C   0  0  0  0  0  0  0  0  0  0  0  0
   -0.3873    0.7284    0.0000 C   0  0  0  0  0  0  0  0  0  0  0  0
   -0.3873   -2.3784    0.0000 C   0  0  0  0  0  0  0  0  0  0  0  0
    0.3873   -2.3784    0.0000 C   0  0  0  0  0  0  0  0  0  0  0  0
    3.5724   -1.2375    0.0000 O   0  0  0  0  0  0  0  0  0  0  0  0
  1  2  1  0  0  0  0
  2  3  1  0  0  0  0
  2  4  2  0  0  0  0
  1  5  2  0  0  0  0
  5  6  1  0  0  0  0
  6  7  2  0  0  0  0
  7  8  1  0  0  0  0
  8  9  2  0  0  0  0
  1  9  1  0  0  0  0
  6 10  1  0  0  0  0
 12 13  2  0  0  0  0
 12 14  1  0  0  0  0
 15 16  1  0  0  0  0
 16 17  1  0  0  0  0
 17 18  2  0  0  0  0
 18 19  1  0  0  0  0
 19 20  1  0  0  0  0
 15 20  1  0  0  0  0
 18 21  1  0  0  0  0
 21 22  2  0  0  0  0
 22 23  1  0  0  0  0
 23 24  2  0  0  0  0
 17 24  1  0  0  0  0
 19 25  1  0  0  0  0
 19 26  1  0  0  0  0
 16 27  1  0  0  0  0
 16 28  1  0  0  0  0
 14 23  1  0  0  0  0
 14 29  1  0  0  0  0
 11 12  1  0  0  0  0
  7 11  1  0  0  0  0
M  END
>  <type>
systematic

$$$$
5-Thia-1-azabicyclo[4.2.0]oct-2-ene-2-carboxylic acid, 7-[(hydroxyphenylacetyl)amino]-3-methoxy-4-methylene-8-oxo-,[6 R-[6α,7β(R*)]]-
  Mrv2401 11022414002D          

  0  0  0     0  0            999 V3000
M  V30 BEGIN CTAB
M  V30 COUNTS 26 28 0 0 1
M  V30 BEGIN ATOM
M  V30 1 N 3.1555 -0.2818 0 0
M  V30 2 C 4.4892 0.4882 0 0
M  V30 3 C 5.8229 -0.2818 0 0
M  V30 4 C 5.8229 -1.8218 0 0
M  V30 5 S 4.4892 -2.5918 0 0
M  V30 6 C 3.1555 -1.8218 0 0 CFG=2
M  V30 7 C 1.6155 -1.8218 0 0 CFG=1
M  V30 8 C 1.6155 -0.2818 0 0
M  V30 9 C 4.4892 2.0282 0 0
M  V30 10 O 5.8229 2.7982 0 0
M  V30 11 O 3.1555 2.7982 0 0
M  V30 12 O 0.5266 0.8071 0 0
M  V30 13 C 7.1566 -2.5918 0 0
M  V30 14 O 7.1566 0.4882 0 0
M  V30 15 C 8.4902 -0.2818 0 0
M  V30 16 N 0.5266 -2.9108 0 0
M  V30 17 C -0.961 -2.5122 0 0
M  V30 18 O -1.3595 -1.0247 0 0
M  V30 19 C -2.0499 -3.6011 0 0
M  V30 20 C -3.5374 -3.2026 0 0
M  V30 21 C -4.6264 -4.2915 0 0
M  V30 22 C -6.1139 -3.8929 0 0
M  V30 23 C -6.5125 -2.4054 0 0
M  V30 24 C -5.4235 -1.3165 0 0
M  V30 25 C -3.936 -1.715 0 0
M  V30 26 O -1.6513 -5.0887 0 0
M  V30 END ATOM
M  V30 BEGIN BOND
M  V30 1 1 1 2
M  V30 2 2 2 3
M  V30 3 1 3 4
M  V30 4 1 4 5
M  V30 5 1 6 5
M  V30 6 1 6 1 CFG=3
M  V30 7 1 6 7
M  V30 8 1 7 8
M  V30 9 1 1 8
M  V30 10 1 9 10
M  V30 11 2 9 11
M  V30 12 1 2 9
M  V30 13 2 8 12
M  V30 14 2 4 13
M  V30 15 1 14 15
M  V30 16 1 3 14
M  V30 17 2 17 18
M  V30 18 1 17 19
M  V30 19 2 20 21
M  V30 20 1 21 22
M  V30 21 2 22 23
M  V30 22 1 23 24
M  V30 23 2 24 25
M  V30 24 1 20 25
M  V30 25 1 19 20
M  V30 26 1 19 26
M  V30 27 1 16 17
M  V30 28 1 7 16 CFG=3
M  V30 END BOND
M  V30 BEGIN COLLECTION
M  V30 MDLV30/STEREL1 ATOMS=(1 7)
M  V30 END COLLECTION
M  V30 END CTAB
M  END
>  <type>
systematic

$$$$
5-Thia-1-azabicyclo[4.2.0]oct-2-ene-2-carboxylic acid, 7-[[(4-methoxyphenyl)oxoacetyl]amino]-4-methyl-8-oxo-, [6 R-(6α,7β)]-
  Mrv2401 11022414012D          

 26 28  0  0  1  0            999 V2000
    1.6905   -0.1510    0.0000 N   0  0  0  0  0  0  0  0  0  0  0  0
    2.4049    0.2615    0.0000 C   0  0  0  0  0  0  0  0  0  0  0  0
    3.1194   -0.1510    0.0000 C   0  0  0  0  0  0  0  0  0  0  0  0
    3.1194   -0.9760    0.0000 C   0  0  0  0  0  0  0  0  0  0  0  0
    2.4049   -1.3885    0.0000 S   0  0  0  0  0  0  0  0  0  0  0  0
    1.6905   -0.9760    0.0000 C   0  0  2  0  0  0  0  0  0  0  0  0
    0.8655   -0.9760    0.0000 C   0  0  2  0  0  0  0  0  0  0  0  0
    0.8655   -0.1510    0.0000 C   0  0  0  0  0  0  0  0  0  0  0  0
    2.4049    1.0865    0.0000 C   0  0  0  0  0  0  0  0  0  0  0  0
    3.1194    1.4990    0.0000 O   0  0  0  0  0  0  0  0  0  0  0  0
    1.6905    1.4990    0.0000 O   0  0  0  0  0  0  0  0  0  0  0  0
    0.2821    0.4324    0.0000 O   0  0  0  0  0  0  0  0  0  0  0  0
    3.8339   -1.3885    0.0000 C   0  0  0  0  0  0  0  0  0  0  0  0
    0.2821   -1.5593    0.0000 N   0  0  0  0  0  0  0  0  0  0  0  0
   -0.5148   -1.3458    0.0000 C   0  0  0  0  0  0  0  0  0  0  0  0
   -0.7283   -0.5489    0.0000 O   0  0  0  0  0  0  0  0  0  0  0  0
   -1.0982   -1.9292    0.0000 C   0  0  0  0  0  0  0  0  0  0  0  0
   -0.8846   -2.7261    0.0000 O   0  0  0  0  0  0  0  0  0  0  0  0
   -1.8950   -1.7157    0.0000 C   0  0  0  0  0  0  0  0  0  0  0  0
   -2.4784   -2.2990    0.0000 C   0  0  0  0  0  0  0  0  0  0  0  0
   -3.2753   -2.0855    0.0000 C   0  0  0  0  0  0  0  0  0  0  0  0
   -3.4888   -1.2886    0.0000 C   0  0  0  0  0  0  0  0  0  0  0  0
   -2.9055   -0.7052    0.0000 C   0  0  0  0  0  0  0  0  0  0  0  0
   -2.1086   -0.9188    0.0000 C   0  0  0  0  0  0  0  0  0  0  0  0
   -4.2857   -1.0751    0.0000 O   0  0  0  0  0  0  0  0  0  0  0  0
   -4.8691   -1.6584    0.0000 C   0  0  0  0  0  0  0  0  0  0  0  0
  1  2  1  0  0  0  0
  2  3  2  0  0  0  0
  3  4  1  0  0  0  0
  4  5  1  0  0  0  0
  6  5  1  0  0  0  0
  6  1  1  6  0  0  0
  6  7  1  0  0  0  0
  7  8  1  0  0  0  0
  1  8  1  0  0  0  0
  9 10  1  0  0  0  0
  9 11  2  0  0  0  0
  2  9  1  0  0  0  0
  8 12  2  0  0  0  0
  4 13  1  0  0  0  0
 15 16  2  0  0  0  0
 15 17  1  0  0  0  0
 17 18  2  0  0  0  0
 19 20  2  0  0  0  0
 20 21  1  0  0  0  0
 21 22  2  0  0  0  0
 22 23  1  0  0  0  0
 23 24  2  0  0  0  0
 19 24  1  0  0  0  0
 25 26  1  0  0  0  0
 22 25  1  0  0  0  0
 17 19  1  0  0  0  0
 14 15  1  0  0  0  0
  7 14  1  1  0  0  0
M  END
>  <type>
systematic

$$$$
2-Amino-5-benzoxazolecarboxylic acid 2-(5-carboxy-1,2-dihydro-2-oxo-3H-indol-3-ylidene)hydrazide
  Mrv2401 11022414032D          

 27 30  0  0  0  0            999 V2000
   -2.5990    2.2248    0.0000 C   0  0  0  0  0  0  0  0  0  0  0  0
   -3.3527    2.5604    0.0000 O   0  0  0  0  0  0  0  0  0  0  0  0
   -3.2665    3.3809    0.0000 C   0  0  0  0  0  0  0  0  0  0  0  0
   -2.4595    3.5524    0.0000 N   0  0  0  0  0  0  0  0  0  0  0  0
   -2.0470    2.8379    0.0000 C   0  0  0  0  0  0  0  0  0  0  0  0
   -1.2400    2.6664    0.0000 C   0  0  0  0  0  0  0  0  0  0  0  0
   -0.9851    1.8818    0.0000 C   0  0  0  0  0  0  0  0  0  0  0  0
   -1.5371    1.2687    0.0000 C   0  0  0  0  0  0  0  0  0  0  0  0
   -2.3441    1.4402    0.0000 C   0  0  0  0  0  0  0  0  0  0  0  0
   -0.1781    1.7103    0.0000 C   0  0  0  0  0  0  0  0  0  0  0  0
    0.3739    2.3234    0.0000 O   0  0  0  0  0  0  0  0  0  0  0  0
    0.8838    0.7541    0.0000 N   0  0  0  0  0  0  0  0  0  0  0  0
    0.0768    0.9256    0.0000 N   0  0  0  0  0  0  0  0  0  0  0  0
    0.6538   -0.6979    0.0000 C   0  0  0  0  0  0  0  0  0  0  0  0
    1.1387   -0.0305    0.0000 C   0  0  0  0  0  0  0  0  0  0  0  0
    1.9233   -0.2854    0.0000 C   0  0  0  0  0  0  0  0  0  0  0  0
    2.6378    0.1271    0.0000 C   0  0  0  0  0  0  0  0  0  0  0  0
    3.3523   -0.2854    0.0000 C   0  0  0  0  0  0  0  0  0  0  0  0
    3.3523   -1.1104    0.0000 C   0  0  0  0  0  0  0  0  0  0  0  0
    2.6378   -1.5229    0.0000 C   0  0  0  0  0  0  0  0  0  0  0  0
    1.9233   -1.1104    0.0000 C   0  0  0  0  0  0  0  0  0  0  0  0
    1.1387   -1.3654    0.0000 N   0  0  0  0  0  0  0  0  0  0  0  0
   -0.1712   -0.6979    0.0000 O   0  0  0  0  0  0  0  0  0  0  0  0
    4.0668    0.1271    0.0000 C   0  0  0  0  0  0  0  0  0  0  0  0
    4.7812   -0.2854    0.0000 O   0  0  0  0  0  0  0  0  0  0  0  0
    4.0668    0.9521    0.0000 O   0  0  0  0  0  0  0  0  0  0  0  0
   -3.8796    3.9329    0.0000 N   0  0  0  0  0  0  0  0  0  0  0  0
  1  2  1  0  0  0  0
  2  3  1  0  0  0  0
  3  4  2  0  0  0  0
  4  5  1  0  0  0  0
  1  5  2  0  0  0  0
  5  6  1  0  0  0  0
  6  7  2  0  0  0  0
  7  8  1  0  0  0  0
  8  9  2  0  0  0  0
  1  9  1  0  0  0  0
 10 11  2  0  0  0  0
  7 10  1  0  0  0  0
 12 13  1  4  0  0  0
 14 15  1  0  0  0  0
 15 16  1  0  0  0  0
 16 17  2  0  0  0  0
 17 18  1  0  0  0  0
 18 19  2  0  0  0  0
 19 20  1  0  0  0  0
 20 21  2  0  0  0  0
 16 21  1  0  0  0  0
 21 22  1  0  0  0  0
 14 22  1  0  0  0  0
 14 23  2  0  0  0  0
 24 25  1  0  0  0  0
 24 26  2  0  0  0  0
 18 24  1  0  0  0  0
 12 15  2  0  0  0  0
 10 13  1  0  0  0  0
  3 27  1  0  0  0  0
M  END
>  <type>
systematic

$$$$
3-Hydroxy-4-[[2-hydroxy-2-(5,6,7,8-tetrahydro-5,5,8,8-tetramethyl-2-naphthalenyl)acetyl]amino]benzoic acid
  Mrv2401 11022414032D          

 29 31  0  0  0  0            999 V2000
    3.5724   -5.3625    0.0000 C   0  0  0  0  0  0  0  0  0  0  0  0
    3.5724   -6.1875    0.0000 C   0  0  0  0  0  0  0  0  0  0  0  0
    4.2868   -6.6000    0.0000 O   0  0  0  0  0  0  0  0  0  0  0  0
    2.8579   -6.6000    0.0000 O   0  0  0  0  0  0  0  0  0  0  0  0
    2.8579   -4.9500    0.0000 C   0  0  0  0  0  0  0  0  0  0  0  0
    2.8579   -4.1250    0.0000 C   0  0  0  0  0  0  0  0  0  0  0  0
    3.5724   -3.7125    0.0000 C   0  0  0  0  0  0  0  0  0  0  0  0
    4.2868   -4.1250    0.0000 C   0  0  0  0  0  0  0  0  0  0  0  0
    4.2868   -4.9500    0.0000 C   0  0  0  0  0  0  0  0  0  0  0  0
    3.5724   -2.8875    0.0000 N   0  0  0  0  0  0  0  0  0  0  0  0
    2.8579   -2.4750    0.0000 C   0  0  0  0  0  0  0  0  0  0  0  0
    2.1434   -2.8875    0.0000 O   0  0  0  0  0  0  0  0  0  0  0  0
    2.8579   -1.6500    0.0000 C   0  0  0  0  0  0  0  0  0  0  0  0
   -0.7145   -1.2375    0.0000 C   0  0  0  0  0  0  0  0  0  0  0  0
    0.0000   -1.6500    0.0000 C   0  0  0  0  0  0  0  0  0  0  0  0
    0.7145   -1.2375    0.0000 C   0  0  0  0  0  0  0  0  0  0  0  0
    0.7145   -0.4125    0.0000 C   0  0  0  0  0  0  0  0  0  0  0  0
    0.0000   -0.0000    0.0000 C   0  0  0  0  0  0  0  0  0  0  0  0
   -0.7145   -0.4125    0.0000 C   0  0  0  0  0  0  0  0  0  0  0  0
    1.4289   -0.0000    0.0000 C   0  0  0  0  0  0  0  0  0  0  0  0
    2.1434   -0.4125    0.0000 C   0  0  0  0  0  0  0  0  0  0  0  0
    2.1434   -1.2375    0.0000 C   0  0  0  0  0  0  0  0  0  0  0  0
    1.4289   -1.6500    0.0000 C   0  0  0  0  0  0  0  0  0  0  0  0
    0.3873    0.7284    0.0000 C   0  0  0  0  0  0  0  0  0  0  0  0
   -0.3873    0.7284    0.0000 C   0  0  0  0  0  0  0  0  0  0  0  0
   -0.3873   -2.3784    0.0000 C   0  0  0  0  0  0  0  0  0  0  0  0
    0.3873   -2.3784    0.0000 C   0  0  0  0  0  0  0  0  0  0  0  0
    3.5724   -1.2375    0.0000 O   0  0  0  0  0  0  0  0  0  0  0  0
    2.1434   -3.7125    0.0000 O   0  0  0  0  0  0  0  0  0  0  0  0
  1  2  1  0  0  0  0
  2  3  1  0  0  0  0
  2  4  2  0  0  0  0
  1  5  2  0  0  0  0
  5  6  1  0  0  0  0
  6  7  2  0  0  0  0
  7  8  1  0  0  0  0
  8  9  2  0  0  0  0
  1  9  1  0  0  0  0
 11 12  2  0  0  0  0
 11 13  1  0  0  0  0
 14 15  1  0  0  0  0
 15 16  1  0  0  0  0
 16 17  2  0  0  0  0
 17 18  1  0  0  0  0
 18 19  1  0  0  0  0
 14 19  1  0  0  0  0
 17 20  1  0  0  0  0
 20 21  2  0  0  0  0
 21 22  1  0  0  0  0
 22 23  2  0  0  0  0
 16 23  1  0  0  0  0
 18 24  1  0  0  0  0
 18 25  1  0  0  0  0
 15 26  1  0  0  0  0
 15 27  1  0  0  0  0
 13 22  1  0  0  0  0
 13 28  1  0  0  0  0
 10 11  1  0  0  0  0
  7 10  1  0  0  0  0
  6 29  1  0  0  0  0
M  END
>  <type>
systematic

$$$$
5-Thia-1-azabicyclo[4.2.0]oct-2-ene-2-carboxylic acid, 3-[(acetyloxy)methyl]-8-oxo-7-[(oxophenylacetyl)amino]-, (6R-trans)-
  Mrv2401 11022414042D          

 28 30  0  0  1  0            999 V2000
    1.6905   -0.1510    0.0000 N   0  0  0  0  0  0  0  0  0  0  0  0
    2.4049    0.2615    0.0000 C   0  0  0  0  0  0  0  0  0  0  0  0
    3.1194   -0.1510    0.0000 C   0  0  0  0  0  0  0  0  0  0  0  0
    3.1194   -0.9760    0.0000 C   0  0  0  0  0  0  0  0  0  0  0  0
    2.4049   -1.3885    0.0000 S   0  0  0  0  0  0  0  0  0  0  0  0
    1.6905   -0.9760    0.0000 C   0  0  2  0  0  0  0  0  0  0  0  0
    0.8655   -0.9760    0.0000 C   0  0  0  0  0  0  0  0  0  0  0  0
    0.8655   -0.1510    0.0000 C   0  0  0  0  0  0  0  0  0  0  0  0
    2.4049    1.0865    0.0000 C   0  0  0  0  0  0  0  0  0  0  0  0
    3.1194    1.4990    0.0000 O   0  0  0  0  0  0  0  0  0  0  0  0
    1.6905    1.4990    0.0000 O   0  0  0  0  0  0  0  0  0  0  0  0
    0.2821   -1.5593    0.0000 N   0  0  0  0  0  0  0  0  0  0  0  0
   -0.5148   -1.3458    0.0000 C   0  0  0  0  0  0  0  0  0  0  0  0
   -0.7283   -0.5489    0.0000 O   0  0  0  0  0  0  0  0  0  0  0  0
   -1.0982   -1.9292    0.0000 C   0  0  0  0  0  0  0  0  0  0  0  0
   -1.8950   -1.7157    0.0000 C   0  0  0  0  0  0  0  0  0  0  0  0
   -2.4784   -2.2990    0.0000 C   0  0  0  0  0  0  0  0  0  0  0  0
   -3.2753   -2.0855    0.0000 C   0  0  0  0  0  0  0  0  0  0  0  0
   -3.4888   -1.2886    0.0000 C   0  0  0  0  0  0  0  0  0  0  0  0
   -2.9055   -0.7052    0.0000 C   0  0  0  0  0  0  0  0  0  0  0  0
   -2.1086   -0.9188    0.0000 C   0  0  0  0  0  0  0  0  0  0  0  0
   -0.8846   -2.7261    0.0000 O   0  0  0  0  0  0  0  0  0  0  0  0
    0.2821    0.4324    0.0000 O   0  0  0  0  0  0  0  0  0  0  0  0
    3.8339    0.2615    0.0000 C   0  0  0  0  0  0  0  0  0  0  0  0
    3.8339    1.0865    0.0000 O   0  0  0  0  0  0  0  0  0  0  0  0
    4.5483    1.4990    0.0000 C   0  0  0  0  0  0  0  0  0  0  0  0
    4.5483    2.3240    0.0000 O   0  0  0  0  0  0  0  0  0  0  0  0
    5.2628    1.0865    0.0000 C   0  0  0  0  0  0  0  0  0  0  0  0
  1  2  1  0  0  0  0
  2  3  2  0  0  0  0
  3  4  1  0  0  0  0
  4  5  1  0  0  0  0
  6  5  1  0  0  0  0
  6  1  1  6  0  0  0
  6  7  1  0  0  0  0
  7  8  1  0  0  0  0
  1  8  1  0  0  0  0
  9 10  1  0  0  0  0
  9 11  2  0  0  0  0
  2  9  1  0  0  0  0
 13 14  2  0  0  0  0
 13 15  1  0  0  0  0
 16 17  2  0  0  0  0
 17 18  1  0  0  0  0
 18 19  2  0  0  0  0
 19 20  1  0  0  0  0
 20 21  2  0  0  0  0
 16 21  1  0  0  0  0
 15 16  1  0  0  0  0
 15 22  2  0  0  0  0
 12 13  1  0  0  0  0
  7 12  1  0  0  0  0
  8 23  2  0  0  0  0
 25 26  1  0  0  0  0
 26 27  2  0  0  0  0
 26 28  1  0  0  0  0
 24 25  1  0  0  0  0
  3 24  1  0  0  0  0
M  END
>  <type>
systematic

$$$$
5-Thia-1-azabicyclo[4.2.0]oct-2-ene-2-carboxylic acid, 3-[(acetyloxy)methyl]-7-[[[4-(aminomethyl)phenyl]hydroxyacetyl]amino]-8-oxo-, [6 R-[6α,7β(R*)]]-
  Mrv2401 11022414052D          

  0  0  0     0  0            999 V3000
M  V30 BEGIN CTAB
M  V30 COUNTS 30 32 0 0 1
M  V30 BEGIN ATOM
M  V30 1 N 3.1555 -0.2818 0 0
M  V30 2 C 4.4892 0.4882 0 0
M  V30 3 C 5.8229 -0.2818 0 0
M  V30 4 C 5.8229 -1.8218 0 0
M  V30 5 S 4.4892 -2.5918 0 0
M  V30 6 C 3.1555 -1.8218 0 0 CFG=2
M  V30 7 C 1.6155 -1.8218 0 0 CFG=1
M  V30 8 C 1.6155 -0.2818 0 0
M  V30 9 C 4.4892 2.0282 0 0
M  V30 10 O 5.8229 2.7982 0 0
M  V30 11 O 3.1555 2.7982 0 0
M  V30 12 O 0.5266 0.8071 0 0
M  V30 13 N 0.5266 -2.9108 0 0
M  V30 14 C -0.961 -2.5122 0 0
M  V30 15 O -1.3595 -1.0247 0 0
M  V30 16 C -2.0499 -3.6011 0 0
M  V30 17 O -1.6513 -5.0887 0 0
M  V30 18 C -3.5374 -3.2026 0 0
M  V30 19 C -4.6264 -4.2915 0 0
M  V30 20 C -6.1139 -3.8929 0 0
M  V30 21 C -6.5125 -2.4054 0 0
M  V30 22 C -5.4235 -1.3165 0 0
M  V30 23 C -3.936 -1.715 0 0
M  V30 24 C -8 -2.0068 0 0
M  V30 25 N -8.3986 -0.5193 0 0
M  V30 26 C 7.1566 0.4882 0 0
M  V30 27 O 7.1566 2.0282 0 0
M  V30 28 C 8.4902 2.7982 0 0
M  V30 29 O 8.4902 4.3382 0 0
M  V30 30 C 9.8239 2.0282 0 0
M  V30 END ATOM
M  V30 BEGIN BOND
M  V30 1 1 1 2
M  V30 2 2 2 3
M  V30 3 1 3 4
M  V30 4 1 4 5
M  V30 5 1 6 5
M  V30 6 1 6 1 CFG=3
M  V30 7 1 6 7
M  V30 8 1 7 8
M  V30 9 1 1 8
M  V30 10 1 9 10
M  V30 11 2 9 11
M  V30 12 1 2 9
M  V30 13 2 8 12
M  V30 14 2 14 15
M  V30 15 1 14 16
M  V30 16 1 16 17
M  V30 17 2 18 19
M  V30 18 1 19 20
M  V30 19 2 20 21
M  V30 20 1 21 22
M  V30 21 2 22 23
M  V30 22 1 18 23
M  V30 23 1 24 25
M  V30 24 1 21 24
M  V30 25 1 16 18
M  V30 26 1 13 14
M  V30 27 1 7 13 CFG=3
M  V30 28 1 27 28
M  V30 29 2 28 29
M  V30 30 1 28 30
M  V30 31 1 26 27
M  V30 32 1 3 26
M  V30 END BOND
M  V30 BEGIN COLLECTION
M  V30 MDLV30/STEREL1 ATOMS=(1 7)
M  V30 END COLLECTION
M  V30 END CTAB
M  END
>  <type>
systematic

$$$$
5-Thia-1-azabicyclo[4.2.0]oct-2-ene-2-carboxylic acid, 7-[[(3-amino-2,3-dihydro-2-imino-4-thiazolyl)hydroxyacetyl]amino]-8-oxo-, [6 R-(6α,7β)]-
  Mrv2401 11022414062D          

 24 26  0  0  1  0            999 V2000
    1.6905   -0.1510    0.0000 N   0  0  0  0  0  0  0  0  0  0  0  0
    2.4049    0.2615    0.0000 C   0  0  0  0  0  0  0  0  0  0  0  0
    3.1194   -0.1510    0.0000 C   0  0  0  0  0  0  0  0  0  0  0  0
    3.1194   -0.9760    0.0000 C   0  0  0  0  0  0  0  0  0  0  0  0
    2.4049   -1.3885    0.0000 S   0  0  0  0  0  0  0  0  0  0  0  0
    1.6905   -0.9760    0.0000 C   0  0  2  0  0  0  0  0  0  0  0  0
    0.8655   -0.9760    0.0000 C   0  0  2  0  0  0  0  0  0  0  0  0
    0.8655   -0.1510    0.0000 C   0  0  0  0  0  0  0  0  0  0  0  0
    2.4049    1.0865    0.0000 C   0  0  0  0  0  0  0  0  0  0  0  0
    3.1194    1.4990    0.0000 O   0  0  0  0  0  0  0  0  0  0  0  0
    1.6905    1.4990    0.0000 O   0  0  0  0  0  0  0  0  0  0  0  0
    0.2821    0.4324    0.0000 O   0  0  0  0  0  0  0  0  0  0  0  0
    0.2821   -1.5593    0.0000 N   0  0  0  0  0  0  0  0  0  0  0  0
    0.4956   -2.3562    0.0000 C   0  0  0  0  0  0  0  0  0  0  0  0
    1.2925   -2.5698    0.0000 O   0  0  0  0  0  0  0  0  0  0  0  0
   -0.0877   -2.9396    0.0000 C   0  0  0  0  0  0  0  0  0  0  0  0
   -0.8846   -2.7261    0.0000 O   0  0  0  0  0  0  0  0  0  0  0  0
    0.8528   -4.8560    0.0000 S   0  0  0  0  0  0  0  0  0  0  0  0
    0.0559   -5.0695    0.0000 C   0  0  0  0  0  0  0  0  0  0  0  0
   -0.3934   -4.3776    0.0000 N   0  0  0  0  0  0  0  0  0  0  0  0
    0.1258   -3.7365    0.0000 C   0  0  0  0  0  0  0  0  0  0  0  0
    0.8960   -4.0321    0.0000 C   0  0  0  0  0  0  0  0  0  0  0  0
   -0.2397   -5.8397    0.0000 N   0  0  0  0  0  0  0  0  0  0  0  0
   -1.2173   -4.3345    0.0000 N   0  0  0  0  0  0  0  0  0  0  0  0
  1  2  1  0  0  0  0
  2  3  2  0  0  0  0
  3  4  1  0  0  0  0
  4  5  1  0  0  0  0
  6  5  1  0  0  0  0
  6  1  1  6  0  0  0
  6  7  1  0  0  0  0
  7  8  1  0  0  0  0
  1  8  1  0  0  0  0
  9 10  1  0  0  0  0
  9 11  2  0  0  0  0
  2  9  1  0  0  0  0
  8 12  2  0  0  0  0
 14 15  2  0  0  0  0
 14 16  1  0  0  0  0
 16 17  1  0  0  0  0
 18 19  1  0  0  0  0
 19 20  1  0  0  0  0
 20 21  1  0  0  0  0
 21 22  2  0  0  0  0
 18 22  1  0  0  0  0
 19 23  2  0  0  0  0
 20 24  1  0  0  0  0
 16 21  1  0  0  0  0
 13 14  1  0  0  0  0
  7 13  1  1  0  0  0
M  END
>  <type>
systematic

$$$$
(1R,4aS,9E,10aR)-9-[2-(Cyclopropylcarbonyl)hydrazinylidene]-1,2,3,4,4a,9,10,10a-octahydro-1,4a-dimethyl-7-(1-methylethyl)-1-phenanthrenecarboxylic acid
  Mrv2401 11022414072D          

 29 32  0  0  1  0            999 V2000
    4.0145    0.4125    0.0000 C   0  0  0  0  0  0  0  0  0  0  0  0
    3.6020    1.1270    0.0000 C   0  0  0  0  0  0  0  0  0  0  0  0
    2.7770    1.1270    0.0000 C   0  0  0  0  0  0  0  0  0  0  0  0
    2.3645    0.4125    0.0000 C   0  0  0  0  0  0  0  0  0  0  0  0
    2.7770   -0.3020    0.0000 C   0  0  0  0  0  0  0  0  0  0  0  0
    3.6020   -0.3020    0.0000 C   0  0  0  0  0  0  0  0  0  0  0  0
    2.3645   -1.0164    0.0000 C   0  0  0  0  0  0  0  0  0  0  0  0
    1.5395   -1.0164    0.0000 C   0  0  0  0  0  0  0  0  0  0  0  0
    1.1270   -0.3020    0.0000 C   0  0  1  0  0  0  0  0  0  0  0  0
    0.3020   -0.3020    0.0000 C   0  0  1  0  0  0  0  0  0  0  0  0
   -0.1105    0.4125    0.0000 C   0  0  0  0  0  0  0  0  0  0  0  0
    0.3020    1.1270    0.0000 C   0  0  0  0  0  0  0  0  0  0  0  0
    1.1270    1.1270    0.0000 C   0  0  0  0  0  0  0  0  0  0  0  0
    1.5395    0.4125    0.0000 C   0  0  2  0  0  0  0  0  0  0  0  0
    0.2732   -1.1265    0.0000 C   0  0  0  0  0  0  0  0  0  0  0  0
   -0.4553   -1.5138    0.0000 O   0  0  0  0  0  0  0  0  0  0  0  0
    0.9728   -1.5637    0.0000 O   0  0  0  0  0  0  0  0  0  0  0  0
    4.8395    0.4125    0.0000 C   0  0  0  0  0  0  0  0  0  0  0  0
    5.2520   -0.3020    0.0000 C   0  0  0  0  0  0  0  0  0  0  0  0
    5.2520    1.1270    0.0000 C   0  0  0  0  0  0  0  0  0  0  0  0
   -0.3977   -0.7392    0.0000 C   0  0  0  0  0  0  0  0  0  0  0  0
    1.9520    1.1270    0.0000 C   0  0  0  0  0  0  0  0  0  0  0  0
    2.7770   -1.7309    0.0000 N   0  0  0  0  0  0  0  0  0  0  0  0
    2.3645   -2.4454    0.0000 N   0  0  0  0  0  0  0  0  0  0  0  0
    2.7770   -3.1599    0.0000 C   0  0  0  0  0  0  0  0  0  0  0  0
    3.6020   -3.1599    0.0000 O   0  0  0  0  0  0  0  0  0  0  0  0
    2.3645   -3.8743    0.0000 C   0  0  0  0  0  0  0  0  0  0  0  0
    2.3645   -4.6993    0.0000 C   0  0  0  0  0  0  0  0  0  0  0  0
    1.6500   -4.2868    0.0000 C   0  0  0  0  0  0  0  0  0  0  0  0
  1  2  2  0  0  0  0
  2  3  1  0  0  0  0
  3  4  2  0  0  0  0
  4  5  1  0  0  0  0
  5  6  2  0  0  0  0
  1  6  1  0  0  0  0
  5  7  1  0  0  0  0
  7  8  1  0  0  0  0
  9  8  1  1  0  0  0
  9 10  1  0  0  0  0
 10 11  1  0  0  0  0
 11 12  1  0  0  0  0
 12 13  1  0  0  0  0
 14 13  1  0  0  0  0
 14  4  1  0  0  0  0
  9 14  1  0  0  0  0
 15 16  1  0  0  0  0
 15 17  2  0  0  0  0
 10 15  1  6  0  0  0
 18 19  1  0  0  0  0
 18 20  1  0  0  0  0
  1 18  1  0  0  0  0
 10 21  1  1  0  0  0
 14 22  1  1  0  0  0
 23 24  1  0  0  0  0
 25 26  2  0  0  0  0
 27 28  1  0  0  0  0
 28 29  1  0  0  0  0
 27 29  1  0  0  0  0
 25 27  1  0  0  0  0
 24 25  1  0  0  0  0
  7 23  2  0  0  0  0
M  END
>  <type>
systematic

$$$$
(1R,4aS,10aR)-9-[2-(Cyclopropylcarbonyl)hydrazinylidene]-1,2,3,4,4a,9,10,10a-octahydro-1,4a-dimethyl-7-(1-methylethyl)-1-phenanthrenecarboxylic acid
  Mrv2401 11022414082D          

 29 32  0  0  1  0            999 V2000
    4.0145    0.4125    0.0000 C   0  0  0  0  0  0  0  0  0  0  0  0
    3.6020    1.1270    0.0000 C   0  0  0  0  0  0  0  0  0  0  0  0
    2.7770    1.1270    0.0000 C   0  0  0  0  0  0  0  0  0  0  0  0
    2.3645    0.4125    0.0000 C   0  0  0  0  0  0  0  0  0  0  0  0
    2.7770   -0.3020    0.0000 C   0  0  0  0  0  0  0  0  0  0  0  0
    3.6020   -0.3020    0.0000 C   0  0  0  0  0  0  0  0  0  0  0  0
    2.3645   -1.0164    0.0000 C   0  0  0  0  0  0  0  0  0  0  0  0
    1.5395   -1.0164    0.0000 C   0  0  0  0  0  0  0  0  0  0  0  0
    1.1270   -0.3020    0.0000 C   0  0  1  0  0  0  0  0  0  0  0  0
    0.3020   -0.3020    0.0000 C   0  0  1  0  0  0  0  0  0  0  0  0
   -0.1105    0.4125    0.0000 C   0  0  0  0  0  0  0  0  0  0  0  0
    0.3020    1.1270    0.0000 C   0  0  0  0  0  0  0  0  0  0  0  0
    1.1270    1.1270    0.0000 C   0  0  0  0  0  0  0  0  0  0  0  0
    1.5395    0.4125    0.0000 C   0  0  2  0  0  0  0  0  0  0  0  0
    0.2732   -1.1265    0.0000 C   0  0  0  0  0  0  0  0  0  0  0  0
   -0.4553   -1.5138    0.0000 O   0  0  0  0  0  0  0  0  0  0  0  0
    0.9728   -1.5637    0.0000 O   0  0  0  0  0  0  0  0  0  0  0  0
    4.8395    0.4125    0.0000 C   0  0  0  0  0  0  0  0  0  0  0  0
    5.2520   -0.3020    0.0000 C   0  0  0  0  0  0  0  0  0  0  0  0
    5.2520    1.1270    0.0000 C   0  0  0  0  0  0  0  0  0  0  0  0
   -0.3977   -0.7392    0.0000 C   0  0  0  0  0  0  0  0  0  0  0  0
    1.9520    1.1270    0.0000 C   0  0  0  0  0  0  0  0  0  0  0  0
    2.7770   -1.7309    0.0000 N   0  0  0  0  0  0  0  0  0  0  0  0
    3.6020   -1.7309    0.0000 N   0  0  0  0  0  0  0  0  0  0  0  0
    4.0145   -2.4454    0.0000 C   0  0  0  0  0  0  0  0  0  0  0  0
    3.6020   -3.1599    0.0000 O   0  0  0  0  0  0  0  0  0  0  0  0
    4.8395   -2.4454    0.0000 C   0  0  0  0  0  0  0  0  0  0  0  0
    5.5539   -2.0329    0.0000 C   0  0  0  0  0  0  0  0  0  0  0  0
    5.5539   -2.8579    0.0000 C   0  0  0  0  0  0  0  0  0  0  0  0
  1  2  2  0  0  0  0
  2  3  1  0  0  0  0
  3  4  2  0  0  0  0
  4  5  1  0  0  0  0
  5  6  2  0  0  0  0
  1  6  1  0  0  0  0
  5  7  1  0  0  0  0
  7  8  1  0  0  0  0
  9  8  1  1  0  0  0
  9 10  1  0  0  0  0
 10 11  1  0  0  0  0
 11 12  1  0  0  0  0
 12 13  1  0  0  0  0
 14 13  1  0  0  0  0
 14  4  1  0  0  0  0
  9 14  1  0  0  0  0
 15 16  1  0  0  0  0
 15 17  2  0  0  0  0
 10 15  1  6  0  0  0
 18 19  1  0  0  0  0
 18 20  1  0  0  0  0
  1 18  1  0  0  0  0
 10 21  1  1  0  0  0
 14 22  1  1  0  0  0
 23 24  1  4  0  0  0
 25 26  2  0  0  0  0
 27 28  1  0  0  0  0
 28 29  1  0  0  0  0
 27 29  1  0  0  0  0
 25 27  1  0  0  0  0
 24 25  1  0  0  0  0
  7 23  2  0  0  0  0
M  END
>  <type>
systematic

$$$$
4-[[2-Hydroxy-2-(5,6,7,8-tetrahydro-5,5,8,8-tetramethyl-2-naphthalenyl)acetyl]amino]-3,5-dimethylbenzoic acid
  Mrv2401 11022414092D          

 30 32  0  0  0  0            999 V2000
    3.5724   -5.3625    0.0000 C   0  0  0  0  0  0  0  0  0  0  0  0
    3.5724   -6.1875    0.0000 C   0  0  0  0  0  0  0  0  0  0  0  0
    4.2868   -6.6000    0.0000 O   0  0  0  0  0  0  0  0  0  0  0  0
    2.8579   -6.6000    0.0000 O   0  0  0  0  0  0  0  0  0  0  0  0
    2.8579   -4.9500    0.0000 C   0  0  0  0  0  0  0  0  0  0  0  0
    2.8579   -4.1250    0.0000 C   0  0  0  0  0  0  0  0  0  0  0  0
    3.5724   -3.7125    0.0000 C   0  0  0  0  0  0  0  0  0  0  0  0
    4.2868   -4.1250    0.0000 C   0  0  0  0  0  0  0  0  0  0  0  0
    4.2868   -4.9500    0.0000 C   0  0  0  0  0  0  0  0  0  0  0  0
    2.1434   -3.7125    0.0000 C   0  0  0  0  0  0  0  0  0  0  0  0
    5.0013   -3.7125    0.0000 C   0  0  0  0  0  0  0  0  0  0  0  0
    3.5724   -2.8875    0.0000 N   0  0  0  0  0  0  0  0  0  0  0  0
    2.8579   -2.4750    0.0000 C   0  0  0  0  0  0  0  0  0  0  0  0
    2.1434   -2.8875    0.0000 O   0  0  0  0  0  0  0  0  0  0  0  0
    2.8579   -1.6500    0.0000 C   0  0  0  0  0  0  0  0  0  0  0  0
   -0.7145   -1.2375    0.0000 C   0  0  0  0  0  0  0  0  0  0  0  0
    0.0000   -1.6500    0.0000 C   0  0  0  0  0  0  0  0  0  0  0  0
    0.7145   -1.2375    0.0000 C   0  0  0  0  0  0  0  0  0  0  0  0
    0.7145   -0.4125    0.0000 C   0  0  0  0  0  0  0  0  0  0  0  0
    0.0000   -0.0000    0.0000 C   0  0  0  0  0  0  0  0  0  0  0  0
   -0.7145   -0.4125    0.0000 C   0  0  0  0  0  0  0  0  0  0  0  0
    1.4289   -0.0000    0.0000 C   0  0  0  0  0  0  0  0  0  0  0  0
    2.1434   -0.4125    0.0000 C   0  0  0  0  0  0  0  0  0  0  0  0
    2.1434   -1.2375    0.0000 C   0  0  0  0  0  0  0  0  0  0  0  0
    1.4289   -1.6500    0.0000 C   0  0  0  0  0  0  0  0  0  0  0  0
    0.3873    0.7284    0.0000 C   0  0  0  0  0  0  0  0  0  0  0  0
   -0.3873    0.7284    0.0000 C   0  0  0  0  0  0  0  0  0  0  0  0
   -0.3873   -2.3784    0.0000 C   0  0  0  0  0  0  0  0  0  0  0  0
    0.3873   -2.3784    0.0000 C   0  0  0  0  0  0  0  0  0  0  0  0
    3.5724   -1.2375    0.0000 O   0  0  0  0  0  0  0  0  0  0  0  0
  1  2  1  0  0  0  0
  2  3  1  0  0  0  0
  2  4  2  0  0  0  0
  1  5  2  0  0  0  0
  5  6  1  0  0  0  0
  6  7  2  0  0  0  0
  7  8  1  0  0  0  0
  8  9  2  0  0  0  0
  1  9  1  0  0  0  0
  6 10  1  0  0  0  0
  8 11  1  0  0  0  0
 13 14  2  0  0  0  0
 13 15  1  0  0  0  0
 16 17  1  0  0  0  0
 17 18  1  0  0  0  0
 18 19  2  0  0  0  0
 19 20  1  0  0  0  0
 20 21  1  0  0  0  0
 16 21  1  0  0  0  0
 19 22  1  0  0  0  0
 22 23  2  0  0  0  0
 23 24  1  0  0  0  0
 24 25  2  0  0  0  0
 18 25  1  0  0  0  0
 20 26  1  0  0  0  0
 20 27  1  0  0  0  0
 17 28  1  0  0  0  0
 17 29  1  0  0  0  0
 15 24  1  0  0  0  0
 15 30  1  0  0  0  0
 12 13  1  0  0  0  0
  7 12  1  0  0  0  0
M  END
>  <type>
systematic

$$$$
5-Thia-1-azabicyclo[4.2.0]oct-2-ene-2-carboxylic acid, 7-[[(2-amino-4-thiazolyl)hydroxyacetyl]amino]-8-oxo-, [6 R-(6α,7β)]
  Mrv2401 11022414102D          

 23 25  0  0  1  0            999 V2000
    1.6905   -0.1510    0.0000 N   0  0  0  0  0  0  0  0  0  0  0  0
    2.4049    0.2615    0.0000 C   0  0  0  0  0  0  0  0  0  0  0  0
    3.1194   -0.1510    0.0000 C   0  0  0  0  0  0  0  0  0  0  0  0
    3.1194   -0.9760    0.0000 C   0  0  0  0  0  0  0  0  0  0  0  0
    2.4049   -1.3885    0.0000 S   0  0  0  0  0  0  0  0  0  0  0  0
    1.6905   -0.9760    0.0000 C   0  0  2  0  0  0  0  0  0  0  0  0
    0.8655   -0.9760    0.0000 C   0  0  2  0  0  0  0  0  0  0  0  0
    0.8655   -0.1510    0.0000 C   0  0  0  0  0  0  0  0  0  0  0  0
    2.4049    1.0865    0.0000 C   0  0  0  0  0  0  0  0  0  0  0  0
    3.1194    1.4990    0.0000 O   0  0  0  0  0  0  0  0  0  0  0  0
    1.6905    1.4990    0.0000 O   0  0  0  0  0  0  0  0  0  0  0  0
    0.2821    0.4324    0.0000 O   0  0  0  0  0  0  0  0  0  0  0  0
    0.2821   -1.5593    0.0000 N   0  0  0  0  0  0  0  0  0  0  0  0
    0.4956   -2.3562    0.0000 C   0  0  0  0  0  0  0  0  0  0  0  0
    1.2925   -2.5698    0.0000 O   0  0  0  0  0  0  0  0  0  0  0  0
   -0.0877   -2.9396    0.0000 C   0  0  0  0  0  0  0  0  0  0  0  0
   -0.8846   -2.7261    0.0000 O   0  0  0  0  0  0  0  0  0  0  0  0
    0.8528   -4.8560    0.0000 S   0  0  0  0  0  0  0  0  0  0  0  0
    0.0559   -5.0695    0.0000 C   0  0  0  0  0  0  0  0  0  0  0  0
   -0.3934   -4.3776    0.0000 N   0  0  0  0  0  0  0  0  0  0  0  0
    0.1258   -3.7365    0.0000 C   0  0  0  0  0  0  0  0  0  0  0  0
    0.8960   -4.0321    0.0000 C   0  0  0  0  0  0  0  0  0  0  0  0
   -0.2397   -5.8397    0.0000 N   0  0  0  0  0  0  0  0  0  0  0  0
  1  2  1  0  0  0  0
  2  3  2  0  0  0  0
  3  4  1  0  0  0  0
  4  5  1  0  0  0  0
  6  5  1  0  0  0  0
  6  1  1  6  0  0  0
  6  7  1  0  0  0  0
  7  8  1  0  0  0  0
  1  8  1  0  0  0  0
  9 10  1  0  0  0  0
  9 11  2  0  0  0  0
  2  9  1  0  0  0  0
  8 12  2  0  0  0  0
 14 15  2  0  0  0  0
 14 16  1  0  0  0  0
 16 17  1  0  0  0  0
 18 19  1  0  0  0  0
 19 20  2  0  0  0  0
 20 21  1  0  0  0  0
 21 22  2  0  0  0  0
 18 22  1  0  0  0  0
 19 23  1  0  0  0  0
 16 21  1  0  0  0  0
 13 14  1  0  0  0  0
  7 13  1  1  0  0  0
M  END
>  <type>
systematic

$$$$
(6R,7R)-7-[[2-(2-Furanyl)-2-oxoacetyl]amino]-3-(hydroxymethyl)-8-oxo-5-thia-1-azabicyclo[4.2.0]oct-2-ene-2-carboxylic acid
  Mrv2401 11022414112D          

 24 26  0  0  1  0            999 V2000
    1.6905   -0.1510    0.0000 N   0  0  0  0  0  0  0  0  0  0  0  0
    2.4049    0.2615    0.0000 C   0  0  0  0  0  0  0  0  0  0  0  0
    3.1194   -0.1510    0.0000 C   0  0  0  0  0  0  0  0  0  0  0  0
    3.1194   -0.9760    0.0000 C   0  0  0  0  0  0  0  0  0  0  0  0
    2.4049   -1.3885    0.0000 S   0  0  0  0  0  0  0  0  0  0  0  0
    1.6905   -0.9760    0.0000 C   0  0  2  0  0  0  0  0  0  0  0  0
    0.8655   -0.9760    0.0000 C   0  0  1  0  0  0  0  0  0  0  0  0
    0.8655   -0.1510    0.0000 C   0  0  0  0  0  0  0  0  0  0  0  0
    2.4049    1.0865    0.0000 C   0  0  0  0  0  0  0  0  0  0  0  0
    3.1194    1.4990    0.0000 O   0  0  0  0  0  0  0  0  0  0  0  0
    1.6905    1.4990    0.0000 O   0  0  0  0  0  0  0  0  0  0  0  0
    0.2821    0.4324    0.0000 O   0  0  0  0  0  0  0  0  0  0  0  0
    3.8339    0.2615    0.0000 C   0  0  0  0  0  0  0  0  0  0  0  0
    4.5483   -0.1510    0.0000 O   0  0  0  0  0  0  0  0  0  0  0  0
    0.2821   -1.5593    0.0000 N   0  0  0  0  0  0  0  0  0  0  0  0
   -0.5148   -1.3458    0.0000 C   0  0  0  0  0  0  0  0  0  0  0  0
   -0.7283   -0.5489    0.0000 O   0  0  0  0  0  0  0  0  0  0  0  0
   -1.0982   -1.9292    0.0000 C   0  0  0  0  0  0  0  0  0  0  0  0
   -0.8846   -2.7261    0.0000 O   0  0  0  0  0  0  0  0  0  0  0  0
   -2.1907   -0.9455    0.0000 O   0  0  0  0  0  0  0  0  0  0  0  0
   -1.8950   -1.7157    0.0000 C   0  0  0  0  0  0  0  0  0  0  0  0
   -2.5362   -2.2348    0.0000 C   0  0  0  0  0  0  0  0  0  0  0  0
   -3.2281   -1.7855    0.0000 C   0  0  0  0  0  0  0  0  0  0  0  0
   -3.0146   -0.9886    0.0000 C   0  0  0  0  0  0  0  0  0  0  0  0
  1  2  1  0  0  0  0
  2  3  2  0  0  0  0
  3  4  1  0  0  0  0
  4  5  1  0  0  0  0
  6  5  1  0  0  0  0
  6  1  1  6  0  0  0
  6  7  1  0  0  0  0
  7  8  1  0  0  0  0
  1  8  1  0  0  0  0
  9 10  1  0  0  0  0
  9 11  2  0  0  0  0
  2  9  1  0  0  0  0
  8 12  2  0  0  0  0
 13 14  1  0  0  0  0
  3 13  1  0  0  0  0
 16 17  2  0  0  0  0
 16 18  1  0  0  0  0
 18 19  2  0  0  0  0
 20 21  1  0  0  0  0
 21 22  2  0  0  0  0
 22 23  1  0  0  0  0
 23 24  2  0  0  0  0
 20 24  1  0  0  0  0
 18 21  1  0  0  0  0
 15 16  1  0  0  0  0
  7 15  1  6  0  0  0
M  END
>  <type>
systematic

$$$$
4-Thia-1-azabicyclo[3.2.0]heptane-2-carboxylic acid, 6-[[(2,3-dihydro-5-benzofuranyl)hydroxyacetyl]amino]-3,3-dimethyl-7-oxo-, [2 S-(2α,5α,6β)]-
  Mrv2401 11022414112D          

 27 30  0  0  1  0            999 V2000
   -2.1263   -3.5203    0.0000 N   0  0  0  0  0  0  0  0  0  0  0  0
   -2.9232   -3.3067    0.0000 C   0  0  2  0  0  0  0  0  0  0  0  0
   -2.9664   -2.4829    0.0000 C   0  0  0  0  0  0  0  0  0  0  0  0
   -2.1962   -2.1872    0.0000 S   0  0  0  0  0  0  0  0  0  0  0  0
   -1.6770   -2.8284    0.0000 C   0  0  1  0  0  0  0  0  0  0  0  0
   -0.9851   -3.2777    0.0000 C   0  0  2  0  0  0  0  0  0  0  0  0
   -1.4344   -3.9696    0.0000 C   0  0  0  0  0  0  0  0  0  0  0  0
   -3.5644   -3.8259    0.0000 C   0  0  0  0  0  0  0  0  0  0  0  0
   -4.3346   -3.5303    0.0000 O   0  0  0  0  0  0  0  0  0  0  0  0
   -3.4353   -4.6408    0.0000 O   0  0  0  0  0  0  0  0  0  0  0  0
   -1.2629   -4.7766    0.0000 O   0  0  0  0  0  0  0  0  0  0  0  0
   -3.7898   -2.4311    0.0000 C   0  0  0  0  0  0  0  0  0  0  0  0
   -3.3486   -1.7517    0.0000 C   0  0  0  0  0  0  0  0  0  0  0  0
   -0.1781   -3.1062    0.0000 N   0  0  0  0  0  0  0  0  0  0  0  0
    0.0768   -2.3215    0.0000 C   0  0  0  0  0  0  0  0  0  0  0  0
   -0.4752   -1.7084    0.0000 O   0  0  0  0  0  0  0  0  0  0  0  0
    0.8838   -2.1500    0.0000 C   0  0  0  0  0  0  0  0  0  0  0  0
    1.4358   -2.7631    0.0000 O   0  0  0  0  0  0  0  0  0  0  0  0
    1.1387   -1.3654    0.0000 C   0  0  0  0  0  0  0  0  0  0  0  0
    0.6538   -0.6979    0.0000 C   0  0  0  0  0  0  0  0  0  0  0  0
    1.1387   -0.0305    0.0000 C   0  0  0  0  0  0  0  0  0  0  0  0
    1.9233   -0.2854    0.0000 C   0  0  0  0  0  0  0  0  0  0  0  0
    2.6378    0.1271    0.0000 C   0  0  0  0  0  0  0  0  0  0  0  0
    3.3523   -0.2854    0.0000 O   0  0  0  0  0  0  0  0  0  0  0  0
    3.3523   -1.1104    0.0000 C   0  0  0  0  0  0  0  0  0  0  0  0
    2.6378   -1.5229    0.0000 C   0  0  0  0  0  0  0  0  0  0  0  0
    1.9233   -1.1104    0.0000 C   0  0  0  0  0  0  0  0  0  0  0  0
  2  1  1  0  0  0  0
  2  3  1  0  0  0  0
  3  4  1  0  0  0  0
  5  4  1  0  0  0  0
  5  1  1  1  0  0  0
  5  6  1  0  0  0  0
  6  7  1  0  0  0  0
  1  7  1  0  0  0  0
  8  9  1  0  0  0  0
  8 10  2  0  0  0  0
  2  8  1  1  0  0  0
  7 11  2  0  0  0  0
  3 12  1  0  0  0  0
  3 13  1  0  0  0  0
 15 16  2  0  0  0  0
 15 17  1  0  0  0  0
 17 18  1  0  0  0  0
 19 20  1  0  0  0  0
 20 21  1  0  0  0  0
 21 22  1  0  0  0  0
 22 23  2  0  0  0  0
 23 24  1  0  0  0  0
 24 25  1  0  0  0  0
 25 26  2  0  0  0  0
 26 27  1  0  0  0  0
 19 27  2  0  0  0  0
 22 27  1  0  0  0  0
 17 19  1  0  0  0  0
 14 15  1  0  0  0  0
  6 14  1  1  0  0  0
M  END
>  <type>
systematic

$$$$
5-Thia-1-azabicyclo[4.2.0]oct-2-ene-2-carboxylic acid, 7-[[hydroxy(4-nitrophenyl)acetyl]amino]-3-methyl-8-oxo-, [6 R-[6α,7β(S*)]]-
  Mrv2401 11022414122D          

  0  0  0     0  0            999 V3000
M  V30 BEGIN CTAB
M  V30 COUNTS 27 29 0 0 1
M  V30 BEGIN ATOM
M  V30 1 N 3.1555 -0.2818 0 0
M  V30 2 C 4.4892 0.4882 0 0
M  V30 3 C 5.8229 -0.2818 0 0
M  V30 4 C 5.8229 -1.8218 0 0
M  V30 5 S 4.4892 -2.5918 0 0
M  V30 6 C 3.1555 -1.8218 0 0 CFG=2
M  V30 7 C 1.6155 -1.8218 0 0 CFG=2
M  V30 8 C 1.6155 -0.2818 0 0
M  V30 9 C 4.4892 2.0282 0 0
M  V30 10 O 5.8229 2.7982 0 0
M  V30 11 O 3.1555 2.7982 0 0
M  V30 12 O 0.5266 0.8071 0 0
M  V30 13 C 7.1566 0.4882 0 0
M  V30 14 N 0.5266 -2.9108 0 0
M  V30 15 C -0.961 -2.5122 0 0
M  V30 16 O -1.3595 -1.0247 0 0
M  V30 17 C -2.0499 -3.6011 0 0
M  V30 18 C -3.5374 -3.2026 0 0
M  V30 19 C -4.6264 -4.2915 0 0
M  V30 20 C -6.1139 -3.8929 0 0
M  V30 21 C -6.5125 -2.4054 0 0
M  V30 22 C -5.4235 -1.3165 0 0
M  V30 23 C -3.936 -1.715 0 0
M  V30 24 N -8 -2.0068 0 0 CHG=1
M  V30 25 O -9.0889 -3.0958 0 0
M  V30 26 O -8.3986 -0.5193 0 0 CHG=-1
M  V30 27 O -1.6513 -5.0887 0 0
M  V30 END ATOM
M  V30 BEGIN BOND
M  V30 1 1 1 2
M  V30 2 2 2 3
M  V30 3 1 3 4
M  V30 4 1 4 5
M  V30 5 1 6 5
M  V30 6 1 6 1 CFG=3
M  V30 7 1 6 7
M  V30 8 1 7 8
M  V30 9 1 1 8
M  V30 10 1 9 10
M  V30 11 2 9 11
M  V30 12 1 2 9
M  V30 13 2 8 12
M  V30 14 1 3 13
M  V30 15 2 15 16
M  V30 16 1 15 17
M  V30 17 2 18 19
M  V30 18 1 19 20
M  V30 19 2 20 21
M  V30 20 1 21 22
M  V30 21 2 22 23
M  V30 22 1 18 23
M  V30 23 2 24 25
M  V30 24 1 24 26
M  V30 25 1 21 24
M  V30 26 1 17 18
M  V30 27 1 17 27
M  V30 28 1 14 15
M  V30 29 1 7 14 CFG=1
M  V30 END BOND
M  V30 BEGIN COLLECTION
M  V30 MDLV30/STEREL1 ATOMS=(1 7)
M  V30 END COLLECTION
M  V30 END CTAB
M  END
>  <type>
systematic

$$$$
5-Thia-1-azabicyclo[4.2.0]oct-2-ene-2-carboxylic acid, 7-[[hydroxy(4-nitrophenyl)acetyl]amino]-3-methyl-8-oxo-, [6 R-[6α,7β(R*)]]-
  Mrv2401 11022414132D          

  0  0  0     0  0            999 V3000
M  V30 BEGIN CTAB
M  V30 COUNTS 27 29 0 0 1
M  V30 BEGIN ATOM
M  V30 1 N 3.1555 -0.2818 0 0
M  V30 2 C 4.4892 0.4882 0 0
M  V30 3 C 5.8229 -0.2818 0 0
M  V30 4 C 5.8229 -1.8218 0 0
M  V30 5 S 4.4892 -2.5918 0 0
M  V30 6 C 3.1555 -1.8218 0 0 CFG=2
M  V30 7 C 1.6155 -1.8218 0 0 CFG=1
M  V30 8 C 1.6155 -0.2818 0 0
M  V30 9 C 4.4892 2.0282 0 0
M  V30 10 O 5.8229 2.7982 0 0
M  V30 11 O 3.1555 2.7982 0 0
M  V30 12 O 0.5266 0.8071 0 0
M  V30 13 C 7.1566 0.4882 0 0
M  V30 14 N 0.5266 -2.9108 0 0
M  V30 15 C -0.961 -2.5122 0 0
M  V30 16 O -1.3595 -1.0247 0 0
M  V30 17 C -2.0499 -3.6011 0 0
M  V30 18 C -3.5374 -3.2026 0 0
M  V30 19 C -4.6264 -4.2915 0 0
M  V30 20 C -6.1139 -3.8929 0 0
M  V30 21 C -6.5125 -2.4054 0 0
M  V30 22 C -5.4235 -1.3165 0 0
M  V30 23 C -3.936 -1.715 0 0
M  V30 24 N -8 -2.0068 0 0 CHG=1
M  V30 25 O -9.0889 -3.0958 0 0
M  V30 26 O -8.3986 -0.5193 0 0 CHG=-1
M  V30 27 O -1.6513 -5.0887 0 0
M  V30 END ATOM
M  V30 BEGIN BOND
M  V30 1 1 1 2
M  V30 2 2 2 3
M  V30 3 1 3 4
M  V30 4 1 4 5
M  V30 5 1 6 5
M  V30 6 1 6 1 CFG=3
M  V30 7 1 6 7
M  V30 8 1 7 8
M  V30 9 1 1 8
M  V30 10 1 9 10
M  V30 11 2 9 11
M  V30 12 1 2 9
M  V30 13 2 8 12
M  V30 14 1 3 13
M  V30 15 2 15 16
M  V30 16 1 15 17
M  V30 17 2 18 19
M  V30 18 1 19 20
M  V30 19 2 20 21
M  V30 20 1 21 22
M  V30 21 2 22 23
M  V30 22 1 18 23
M  V30 23 2 24 25
M  V30 24 1 24 26
M  V30 25 1 21 24
M  V30 26 1 17 18
M  V30 27 1 17 27
M  V30 28 1 14 15
M  V30 29 1 7 14 CFG=3
M  V30 END BOND
M  V30 BEGIN COLLECTION
M  V30 MDLV30/STEREL1 ATOMS=(1 7)
M  V30 END COLLECTION
M  V30 END CTAB
M  END
>  <type>
systematic

$$$$

  Mrv2401 11022414172D          

  0  0  0     0  0            999 V3000
M  V30 BEGIN CTAB
M  V30 COUNTS 28 30 0 0 1
M  V30 BEGIN ATOM
M  V30 1 N 3.1555 -0.2818 0 0
M  V30 2 C 4.4892 0.4882 0 0
M  V30 3 C 5.8229 -0.2818 0 0
M  V30 4 C 5.8229 -1.8218 0 0
M  V30 5 S 4.4892 -2.5918 0 0
M  V30 6 C 3.1555 -1.8218 0 0 CFG=2
M  V30 7 C 1.6155 -1.8218 0 0 CFG=2
M  V30 8 C 1.6155 -0.2818 0 0
M  V30 9 C 4.4892 2.0282 0 0
M  V30 10 O 5.8229 2.7982 0 0
M  V30 11 O 3.1555 2.7982 0 0
M  V30 12 O 0.5266 0.8071 0 0
M  V30 13 C 7.1566 0.4882 0 0
M  V30 14 N 0.5266 -2.9108 0 0
M  V30 15 C -0.961 -2.5122 0 0
M  V30 16 O -1.3595 -1.0247 0 0
M  V30 17 C -2.0499 -3.6011 0 0
M  V30 18 C -3.5374 -3.2026 0 0
M  V30 19 C -4.6264 -4.2915 0 0
M  V30 20 C -6.1139 -3.8929 0 0
M  V30 21 C -6.5125 -2.4054 0 0
M  V30 22 C -5.4235 -1.3165 0 0
M  V30 23 C -3.936 -1.715 0 0
M  V30 24 O -1.6513 -5.0887 0 0
M  V30 25 N 8.4902 -0.2818 0 0
M  V30 26 N 9.8239 0.4882 0 0
M  V30 27 N -8 -2.0068 0 0
M  V30 28 N 11.1576 -0.2818 0 0
M  V30 END ATOM
M  V30 BEGIN BOND
M  V30 1 1 1 2
M  V30 2 2 2 3
M  V30 3 1 3 4
M  V30 4 1 4 5
M  V30 5 1 6 5
M  V30 6 1 6 1 CFG=3
M  V30 7 1 6 7
M  V30 8 1 7 8
M  V30 9 1 1 8
M  V30 10 1 9 10
M  V30 11 2 9 11
M  V30 12 1 2 9
M  V30 13 2 8 12
M  V30 14 1 3 13
M  V30 15 2 15 16
M  V30 16 1 15 17
M  V30 17 2 18 19
M  V30 18 1 19 20
M  V30 19 2 20 21
M  V30 20 1 21 22
M  V30 21 2 22 23
M  V30 22 1 18 23
M  V30 23 1 17 18
M  V30 24 2 17 24
M  V30 25 1 14 15
M  V30 26 1 7 14 CFG=1
M  V30 27 1 13 25
M  V30 28 2 25 26
M  V30 29 1 21 27
M  V30 30 2 26 28
M  V30 END BOND
M  V30 BEGIN COLLECTION
M  V30 MDLV30/STEREL1 ATOMS=(1 7)
M  V30 END COLLECTION
M  V30 END CTAB
M  END
>  <type>
systematic

$$$$
5-Oxa-1-azabicyclo[4.2.0]oct-2-ene-2-carboxylic acid, 7-[(hydroxyphenylacetyl)amino]-8-oxo-3-(phenylmethyl)-, [6 R-[6α,7β(R*)]]-
  Mrv2401 11022414182D          

  0  0  0     0  0            999 V3000
M  V30 BEGIN CTAB
M  V30 COUNTS 30 33 0 0 1
M  V30 BEGIN ATOM
M  V30 1 N 3.1555 -0.2818 0 0
M  V30 2 C 4.4892 0.4882 0 0
M  V30 3 C 5.8229 -0.2818 0 0
M  V30 4 C 5.8229 -1.8218 0 0
M  V30 5 O 4.4892 -2.5918 0 0
M  V30 6 C 3.1555 -1.8218 0 0 CFG=2
M  V30 7 C 1.6155 -1.8218 0 0 CFG=2
M  V30 8 C 1.6155 -0.2818 0 0
M  V30 9 C 4.4892 2.0282 0 0
M  V30 10 O 5.8229 2.7982 0 0
M  V30 11 O 3.1555 2.7982 0 0
M  V30 12 C 7.1566 0.4882 0 0
M  V30 13 C 8.4902 -0.2818 0 0
M  V30 14 C 9.8239 0.4882 0 0
M  V30 15 C 11.1576 -0.2818 0 0
M  V30 16 C 11.1576 -1.8218 0 0
M  V30 17 C 9.8239 -2.5918 0 0
M  V30 18 C 8.4902 -1.8218 0 0
M  V30 19 O 0.5266 0.8071 0 0
M  V30 20 N 0.5266 -2.9108 0 0
M  V30 21 C -0.961 -2.5122 0 0
M  V30 22 O -1.3595 -1.0247 0 0
M  V30 23 C -2.0499 -3.6011 0 0
M  V30 24 C -3.5374 -3.2026 0 0
M  V30 25 C -4.6264 -4.2915 0 0
M  V30 26 C -6.1139 -3.8929 0 0
M  V30 27 C -6.5125 -2.4054 0 0
M  V30 28 C -5.4235 -1.3165 0 0
M  V30 29 C -3.936 -1.715 0 0
M  V30 30 O -1.6513 -5.0887 0 0
M  V30 END ATOM
M  V30 BEGIN BOND
M  V30 1 1 1 2
M  V30 2 2 2 3
M  V30 3 1 3 4
M  V30 4 1 4 5
M  V30 5 1 6 5
M  V30 6 1 6 1 CFG=3
M  V30 7 1 6 7
M  V30 8 1 7 8
M  V30 9 1 1 8
M  V30 10 1 9 10
M  V30 11 2 9 11
M  V30 12 1 2 9
M  V30 13 2 13 14
M  V30 14 1 14 15
M  V30 15 2 15 16
M  V30 16 1 16 17
M  V30 17 2 17 18
M  V30 18 1 13 18
M  V30 19 1 12 13
M  V30 20 1 3 12
M  V30 21 2 8 19
M  V30 22 2 21 22
M  V30 23 1 21 23
M  V30 24 2 24 25
M  V30 25 1 25 26
M  V30 26 2 26 27
M  V30 27 1 27 28
M  V30 28 2 28 29
M  V30 29 1 24 29
M  V30 30 1 23 24
M  V30 31 1 23 30
M  V30 32 1 20 21
M  V30 33 1 7 20 CFG=1
M  V30 END BOND
M  V30 BEGIN COLLECTION
M  V30 MDLV30/STEREL1 ATOMS=(1 7)
M  V30 END COLLECTION
M  V30 END CTAB
M  END
>  <type>
systematic

$$$$
5-Thia-1-azabicyclo[4.2.0]oct-2-ene-2-carboxylic acid, 3-[(acetyloxy)methyl]-8-oxo-7-[(oxo-2-thienylacetyl)amino]-, (6R-trans)-
  Mrv2401 11022414192D          

 27 29  0  0  1  0            999 V2000
    1.6905   -0.1510    0.0000 N   0  0  0  0  0  0  0  0  0  0  0  0
    2.4049    0.2615    0.0000 C   0  0  0  0  0  0  0  0  0  0  0  0
    3.1194   -0.1510    0.0000 C   0  0  0  0  0  0  0  0  0  0  0  0
    3.1194   -0.9760    0.0000 C   0  0  0  0  0  0  0  0  0  0  0  0
    2.4049   -1.3885    0.0000 S   0  0  0  0  0  0  0  0  0  0  0  0
    1.6905   -0.9760    0.0000 C   0  0  2  0  0  0  0  0  0  0  0  0
    0.8655   -0.9760    0.0000 C   0  0  0  0  0  0  0  0  0  0  0  0
    0.8655   -0.1510    0.0000 C   0  0  0  0  0  0  0  0  0  0  0  0
    2.4049    1.0865    0.0000 C   0  0  0  0  0  0  0  0  0  0  0  0
    3.1194    1.4990    0.0000 O   0  0  0  0  0  0  0  0  0  0  0  0
    1.6905    1.4990    0.0000 O   0  0  0  0  0  0  0  0  0  0  0  0
    0.2821   -1.5593    0.0000 N   0  0  0  0  0  0  0  0  0  0  0  0
   -0.5148   -1.3458    0.0000 C   0  0  0  0  0  0  0  0  0  0  0  0
   -0.7283   -0.5489    0.0000 O   0  0  0  0  0  0  0  0  0  0  0  0
   -1.0982   -1.9292    0.0000 C   0  0  0  0  0  0  0  0  0  0  0  0
   -2.1907   -0.9455    0.0000 S   0  0  0  0  0  0  0  0  0  0  0  0
   -1.8950   -1.7157    0.0000 C   0  0  0  0  0  0  0  0  0  0  0  0
   -2.5362   -2.2348    0.0000 C   0  0  0  0  0  0  0  0  0  0  0  0
   -3.2281   -1.7855    0.0000 C   0  0  0  0  0  0  0  0  0  0  0  0
   -3.0146   -0.9886    0.0000 C   0  0  0  0  0  0  0  0  0  0  0  0
   -0.8846   -2.7261    0.0000 O   0  0  0  0  0  0  0  0  0  0  0  0
    0.2821    0.4324    0.0000 O   0  0  0  0  0  0  0  0  0  0  0  0
    3.8339    0.2615    0.0000 C   0  0  0  0  0  0  0  0  0  0  0  0
    3.8339    1.0865    0.0000 O   0  0  0  0  0  0  0  0  0  0  0  0
    4.5483    1.4990    0.0000 C   0  0  0  0  0  0  0  0  0  0  0  0
    4.5483    2.3240    0.0000 O   0  0  0  0  0  0  0  0  0  0  0  0
    5.2628    1.0865    0.0000 C   0  0  0  0  0  0  0  0  0  0  0  0
  1  2  1  0  0  0  0
  2  3  2  0  0  0  0
  3  4  1  0  0  0  0
  4  5  1  0  0  0  0
  6  5  1  0  0  0  0
  6  1  1  6  0  0  0
  6  7  1  0  0  0  0
  7  8  1  0  0  0  0
  1  8  1  0  0  0  0
  9 10  1  0  0  0  0
  9 11  2  0  0  0  0
  2  9  1  0  0  0  0
 13 14  2  0  0  0  0
 13 15  1  0  0  0  0
 16 17  1  0  0  0  0
 17 18  2  0  0  0  0
 18 19  1  0  0  0  0
 19 20  2  0  0  0  0
 16 20  1  0  0  0  0
 15 17  1  0  0  0  0
 15 21  2  0  0  0  0
 12 13  1  0  0  0  0
  7 12  1  0  0  0  0
  8 22  2  0  0  0  0
 24 25  1  0  0  0  0
 25 26  2  0  0  0  0
 25 27  1  0  0  0  0
 23 24  1  0  0  0  0
  3 23  1  0  0  0  0
M  END
>  <type>
systematic

$$$$
5-Chloro-2-(3,4-difluorophenoxy)-3-pyridinecarboxylic acid 2- (4-carboxyphenyl)hydrazide
  Mrv2401 11022420052D          

 29 31  0  0  0  0            999 V2000
    0.0000   -2.4750    0.0000 N   0  0  0  0  0  0  0  0  0  0  0  0
   -0.7145   -2.8875    0.0000 C   0  0  0  0  0  0  0  0  0  0  0  0
   -1.4289   -2.4750    0.0000 C   0  0  0  0  0  0  0  0  0  0  0  0
   -1.4289   -1.6500    0.0000 C   0  0  0  0  0  0  0  0  0  0  0  0
   -0.7145   -1.2375    0.0000 C   0  0  0  0  0  0  0  0  0  0  0  0
    0.0000   -1.6500    0.0000 C   0  0  0  0  0  0  0  0  0  0  0  0
   -2.1434   -2.8875    0.0000 C   0  0  0  0  0  0  0  0  0  0  0  0
   -2.1434   -3.7125    0.0000 O   0  0  0  0  0  0  0  0  0  0  0  0
   -3.5724   -2.8875    0.0000 N   0  0  0  0  0  0  0  0  0  0  0  0
   -2.8579   -2.4750    0.0000 N   0  0  0  0  0  0  0  0  0  0  0  0
   -4.2868   -2.4750    0.0000 C   0  0  0  0  0  0  0  0  0  0  0  0
   -5.0013   -2.8875    0.0000 C   0  0  0  0  0  0  0  0  0  0  0  0
   -5.7158   -2.4750    0.0000 C   0  0  0  0  0  0  0  0  0  0  0  0
   -5.7158   -1.6500    0.0000 C   0  0  0  0  0  0  0  0  0  0  0  0
   -5.0013   -1.2375    0.0000 C   0  0  0  0  0  0  0  0  0  0  0  0
   -4.2868   -1.6500    0.0000 C   0  0  0  0  0  0  0  0  0  0  0  0
   -6.4302   -1.2375    0.0000 C   0  0  0  0  0  0  0  0  0  0  0  0
   -6.4302   -0.4125    0.0000 O   0  0  0  0  0  0  0  0  0  0  0  0
   -7.1447   -1.6500    0.0000 O   0  0  0  0  0  0  0  0  0  0  0  0
   -0.7145   -3.7125    0.0000 O   0  0  0  0  0  0  0  0  0  0  0  0
    0.0000   -4.1250    0.0000 C   0  0  0  0  0  0  0  0  0  0  0  0
    0.7145   -3.7125    0.0000 C   0  0  0  0  0  0  0  0  0  0  0  0
    1.4289   -4.1250    0.0000 C   0  0  0  0  0  0  0  0  0  0  0  0
    1.4289   -4.9500    0.0000 C   0  0  0  0  0  0  0  0  0  0  0  0
    0.7145   -5.3625    0.0000 C   0  0  0  0  0  0  0  0  0  0  0  0
    0.0000   -4.9500    0.0000 C   0  0  0  0  0  0  0  0  0  0  0  0
    2.1434   -3.7125    0.0000 F   0  0  0  0  0  0  0  0  0  0  0  0
    2.1434   -5.3625    0.0000 F   0  0  0  0  0  0  0  0  0  0  0  0
   -0.7145   -0.4125    0.0000 Cl  0  0  0  0  0  0  0  0  0  0  0  0
  1  2  2  0  0  0  0
  2  3  1  0  0  0  0
  3  4  2  0  0  0  0
  4  5  1  0  0  0  0
  5  6  2  0  0  0  0
  1  6  1  0  0  0  0
  7  8  2  0  0  0  0
  3  7  1  0  0  0  0
  9 10  1  0  0  0  0
 11 12  2  0  0  0  0
 12 13  1  0  0  0  0
 13 14  2  0  0  0  0
 14 15  1  0  0  0  0
 15 16  2  0  0  0  0
 11 16  1  0  0  0  0
 17 18  1  0  0  0  0
 17 19  2  0  0  0  0
 14 17  1  0  0  0  0
  9 11  1  0  0  0  0
  7 10  1  0  0  0  0
 20 21  1  0  0  0  0
 21 22  2  0  0  0  0
 22 23  1  0  0  0  0
 23 24  2  0  0  0  0
 24 25  1  0  0  0  0
 25 26  2  0  0  0  0
 21 26  1  0  0  0  0
 23 27  1  0  0  0  0
 24 28  1  0  0  0  0
  2 20  1  0  0  0  0
  5 29  1  0  0  0  0
M  END
>  <type>
systematic

$$$$
4-Thia-1-azabicyclo[3.2.0]heptane-3-carboxylic acid, 6-[(hydroxyphenylacetyl)amino]-7-oxo-3-(2-oxo-3-oxazolidinyl)-,[3 R-(3α,5α,6β)]-
  Mrv2401 11022420062D          

 28 31  0  0  1  0            999 V2000
    1.7733    0.2488    0.0000 N   0  0  0  0  0  0  0  0  0  0  0  0
    2.5579    0.5038    0.0000 C   0  0  0  0  0  0  0  0  0  0  0  0
    3.0428   -0.1637    0.0000 C   0  0  1  0  0  0  0  0  0  0  0  0
    2.5579   -0.8311    0.0000 S   0  0  0  0  0  0  0  0  0  0  0  0
    1.7733   -0.5762    0.0000 C   0  0  1  0  0  0  0  0  0  0  0  0
    0.9483   -0.5762    0.0000 C   0  0  2  0  0  0  0  0  0  0  0  0
    0.9483    0.2488    0.0000 C   0  0  0  0  0  0  0  0  0  0  0  0
    3.7616   -0.5687    0.0000 C   0  0  0  0  0  0  0  0  0  0  0  0
    4.5667   -0.3887    0.0000 O   0  0  0  0  0  0  0  0  0  0  0  0
    3.7702   -1.3936    0.0000 O   0  0  0  0  0  0  0  0  0  0  0  0
    4.6651    1.2239    0.0000 O   0  0  0  0  0  0  0  0  0  0  0  0
    3.8564    1.0608    0.0000 C   0  0  0  0  0  0  0  0  0  0  0  0
    3.7616    0.2413    0.0000 N   0  0  0  0  0  0  0  0  0  0  0  0
    4.5117   -0.1021    0.0000 C   0  0  0  0  0  0  0  0  0  0  0  0
    5.0701    0.5052    0.0000 C   0  0  0  0  0  0  0  0  0  0  0  0
    3.2491    1.6193    0.0000 O   0  0  0  0  0  0  0  0  0  0  0  0
    0.3649    0.8322    0.0000 O   0  0  0  0  0  0  0  0  0  0  0  0
    0.3649   -1.1595    0.0000 N   0  0  0  0  0  0  0  0  0  0  0  0
   -0.4319   -0.9460    0.0000 C   0  0  0  0  0  0  0  0  0  0  0  0
   -0.6455   -0.1491    0.0000 O   0  0  0  0  0  0  0  0  0  0  0  0
   -1.0153   -1.5294    0.0000 C   0  0  0  0  0  0  0  0  0  0  0  0
   -1.8122   -1.3159    0.0000 C   0  0  0  0  0  0  0  0  0  0  0  0
   -2.3956   -1.8992    0.0000 C   0  0  0  0  0  0  0  0  0  0  0  0
   -3.1925   -1.6857    0.0000 C   0  0  0  0  0  0  0  0  0  0  0  0
   -3.4060   -0.8888    0.0000 C   0  0  0  0  0  0  0  0  0  0  0  0
   -2.8226   -0.3054    0.0000 C   0  0  0  0  0  0  0  0  0  0  0  0
   -2.0257   -0.5190    0.0000 C   0  0  0  0  0  0  0  0  0  0  0  0
   -0.8018   -2.3263    0.0000 O   0  0  0  0  0  0  0  0  0  0  0  0
  1  2  1  0  0  0  0
  3  2  1  0  0  0  0
  3  4  1  0  0  0  0
  5  4  1  0  0  0  0
  5  1  1  1  0  0  0
  5  6  1  0  0  0  0
  6  7  1  0  0  0  0
  1  7  1  0  0  0  0
  8  9  1  0  0  0  0
  8 10  2  0  0  0  0
  3  8  1  6  0  0  0
 11 12  1  0  0  0  0
 12 13  1  0  0  0  0
 13 14  1  0  0  0  0
 14 15  1  0  0  0  0
 11 15  1  0  0  0  0
 12 16  2  0  0  0  0
  3 13  1  1  0  0  0
  7 17  2  0  0  0  0
 19 20  2  0  0  0  0
 19 21  1  0  0  0  0
 22 23  2  0  0  0  0
 23 24  1  0  0  0  0
 24 25  2  0  0  0  0
 25 26  1  0  0  0  0
 26 27  2  0  0  0  0
 22 27  1  0  0  0  0
 21 22  1  0  0  0  0
 21 28  1  0  0  0  0
 18 19  1  0  0  0  0
  6 18  1  1  0  0  0
M  END
>  <type>
systematic

$$$$

  Mrv2401 11022420132D          

 32 34  0  0  1  0            999 V2000
    1.6905   -0.1510    0.0000 N   0  0  0  0  0  0  0  0  0  0  0  0
    2.4049    0.2615    0.0000 C   0  0  0  0  0  0  0  0  0  0  0  0
    3.1194   -0.1510    0.0000 C   0  0  0  0  0  0  0  0  0  0  0  0
    3.1194   -0.9760    0.0000 C   0  0  0  0  0  0  0  0  0  0  0  0
    2.4049   -1.3885    0.0000 S   0  0  0  0  0  0  0  0  0  0  0  0
    1.6905   -0.9760    0.0000 C   0  0  2  0  0  0  0  0  0  0  0  0
    0.8655   -0.9760    0.0000 C   0  0  1  0  0  0  0  0  0  0  0  0
    0.8655   -0.1510    0.0000 C   0  0  0  0  0  0  0  0  0  0  0  0
    2.4049    1.0865    0.0000 C   0  0  0  0  0  0  0  0  0  0  0  0
    3.1194    1.4990    0.0000 O   0  0  0  0  0  0  0  0  0  0  0  0
    1.6905    1.4990    0.0000 O   0  0  0  0  0  0  0  0  0  0  0  0
    0.2821    0.4324    0.0000 O   0  0  0  0  0  0  0  0  0  0  0  0
    0.2821   -1.5593    0.0000 N   0  0  0  0  0  0  0  0  0  0  0  0
   -0.5148   -1.3458    0.0000 C   0  0  0  0  0  0  0  0  0  0  0  0
   -0.7283   -0.5489    0.0000 O   0  0  0  0  0  0  0  0  0  0  0  0
   -1.0982   -1.9292    0.0000 C   0  0  0  0  0  0  0  0  0  0  0  0
   -0.8846   -2.7261    0.0000 O   0  0  0  0  0  0  0  0  0  0  0  0
   -1.8950   -1.7157    0.0000 C   0  0  0  0  0  0  0  0  0  0  0  0
    3.8339    0.2615    0.0000 C   0  0  0  0  0  0  0  0  0  0  0  0
    3.8339    1.0865    0.0000 O   0  0  0  0  0  0  0  0  0  0  0  0
    4.5483    1.4990    0.0000 C   0  0  0  0  0  0  0  0  0  0  0  0
    4.5483    2.3240    0.0000 O   0  0  0  0  0  0  0  0  0  0  0  0
    5.2628    1.0865    0.0000 C   0  0  0  0  0  0  0  0  0  0  0  0
   -2.1086   -0.9188    0.0000 C   0  0  0  0  0  0  0  0  0  0  0  0
   -2.9055   -0.7052    0.0000 C   0  0  0  0  0  0  0  0  0  0  0  0
   -3.4889   -1.2886    0.0000 C   0  0  0  0  0  0  0  0  0  0  0  0
   -3.2753   -2.0855    0.0000 C   0  0  0  0  0  0  0  0  0  0  0  0
   -2.4784   -2.2990    0.0000 C   0  0  0  0  0  0  0  0  0  0  0  0
    5.9773    1.4990    0.0000 C   0  0  0  0  0  0  0  0  0  0  0  0
    6.6918    1.0865    0.0000 C   0  0  0  0  0  0  0  0  0  0  0  0
    7.4062    1.4990    0.0000 O   0  0  0  0  0  0  0  0  0  0  0  0
    6.6918    0.2615    0.0000 O   0  0  0  0  0  0  0  0  0  0  0  0
  1  2  1  0  0  0  0
  2  3  2  0  0  0  0
  3  4  1  0  0  0  0
  4  5  1  0  0  0  0
  6  5  1  0  0  0  0
  6  1  1  6  0  0  0
  6  7  1  0  0  0  0
  7  8  1  0  0  0  0
  1  8  1  0  0  0  0
  9 10  1  0  0  0  0
  9 11  2  0  0  0  0
  2  9  1  0  0  0  0
  8 12  2  0  0  0  0
 14 15  2  0  0  0  0
 14 16  1  0  0  0  0
 16 17  1  0  0  0  0
 16 18  1  0  0  0  0
 13 14  1  0  0  0  0
  7 13  1  6  0  0  0
 20 21  1  0  0  0  0
 21 22  2  0  0  0  0
 21 23  1  0  0  0  0
 19 20  1  0  0  0  0
  3 19  1  0  0  0  0
 24 25  2  0  0  0  0
 25 26  1  0  0  0  0
 26 27  2  0  0  0  0
 27 28  1  0  0  0  0
 18 24  1  0  0  0  0
 18 28  2  0  0  0  0
 23 29  1  0  0  0  0
 29 30  1  0  0  0  0
 30 31  1  0  0  0  0
 30 32  2  0  0  0  0
M  END
>  <type>
systematic

$$$$
(6R,7R)-3-[(Acetyloxy)methyl]-7-[[2-(2-furanyl)-2-oxoacetyl]amino]-8-oxo-5-thia-1-azabicyclo[4.2.0]oct-2-ene-2-carboxylic acid
  Mrv2401 11022420092D          

 27 29  0  0  1  0            999 V2000
    1.6905   -0.1510    0.0000 N   0  0  0  0  0  0  0  0  0  0  0  0
    2.4049    0.2615    0.0000 C   0  0  0  0  0  0  0  0  0  0  0  0
    3.1194   -0.1510    0.0000 C   0  0  0  0  0  0  0  0  0  0  0  0
    3.1194   -0.9760    0.0000 C   0  0  0  0  0  0  0  0  0  0  0  0
    2.4049   -1.3885    0.0000 S   0  0  0  0  0  0  0  0  0  0  0  0
    1.6905   -0.9760    0.0000 C   0  0  2  0  0  0  0  0  0  0  0  0
    0.8655   -0.9760    0.0000 C   0  0  1  0  0  0  0  0  0  0  0  0
    0.8655   -0.1510    0.0000 C   0  0  0  0  0  0  0  0  0  0  0  0
    2.4049    1.0865    0.0000 C   0  0  0  0  0  0  0  0  0  0  0  0
    3.1194    1.4990    0.0000 O   0  0  0  0  0  0  0  0  0  0  0  0
    1.6905    1.4990    0.0000 O   0  0  0  0  0  0  0  0  0  0  0  0
    0.2821    0.4324    0.0000 O   0  0  0  0  0  0  0  0  0  0  0  0
    0.2821   -1.5593    0.0000 N   0  0  0  0  0  0  0  0  0  0  0  0
   -0.5148   -1.3458    0.0000 C   0  0  0  0  0  0  0  0  0  0  0  0
   -0.7283   -0.5489    0.0000 O   0  0  0  0  0  0  0  0  0  0  0  0
   -1.0982   -1.9292    0.0000 C   0  0  0  0  0  0  0  0  0  0  0  0
   -0.8846   -2.7261    0.0000 O   0  0  0  0  0  0  0  0  0  0  0  0
   -2.1907   -0.9455    0.0000 O   0  0  0  0  0  0  0  0  0  0  0  0
   -1.8950   -1.7157    0.0000 C   0  0  0  0  0  0  0  0  0  0  0  0
   -2.5362   -2.2348    0.0000 C   0  0  0  0  0  0  0  0  0  0  0  0
   -3.2281   -1.7855    0.0000 C   0  0  0  0  0  0  0  0  0  0  0  0
   -3.0146   -0.9886    0.0000 C   0  0  0  0  0  0  0  0  0  0  0  0
    3.8339    0.2615    0.0000 C   0  0  0  0  0  0  0  0  0  0  0  0
    3.8339    1.0865    0.0000 O   0  0  0  0  0  0  0  0  0  0  0  0
    4.5483    1.4990    0.0000 C   0  0  0  0  0  0  0  0  0  0  0  0
    4.5483    2.3240    0.0000 O   0  0  0  0  0  0  0  0  0  0  0  0
    5.2628    1.0865    0.0000 C   0  0  0  0  0  0  0  0  0  0  0  0
  1  2  1  0  0  0  0
  2  3  2  0  0  0  0
  3  4  1  0  0  0  0
  4  5  1  0  0  0  0
  6  5  1  0  0  0  0
  6  1  1  6  0  0  0
  6  7  1  0  0  0  0
  7  8  1  0  0  0  0
  1  8  1  0  0  0  0
  9 10  1  0  0  0  0
  9 11  2  0  0  0  0
  2  9  1  0  0  0  0
  8 12  2  0  0  0  0
 14 15  2  0  0  0  0
 14 16  1  0  0  0  0
 16 17  2  0  0  0  0
 18 19  1  0  0  0  0
 19 20  2  0  0  0  0
 20 21  1  0  0  0  0
 21 22  2  0  0  0  0
 18 22  1  0  0  0  0
 16 19  1  0  0  0  0
 13 14  1  0  0  0  0
  7 13  1  6  0  0  0
 24 25  1  0  0  0  0
 25 26  2  0  0  0  0
 25 27  1  0  0  0  0
 23 24  1  0  0  0  0
  3 23  1  0  0  0  0
M  END
>  <type>
systematic

$$$$
2-Amino-5-benzoxazolecarboxylic acid 2-(7-carboxy-1,2-dihydro-2-oxo-3H-indol-3-ylidene)hydrazide
  Mrv2401 11022420132D          

 27 30  0  0  0  0            999 V2000
   -2.5990    2.2248    0.0000 C   0  0  0  0  0  0  0  0  0  0  0  0
   -3.3527    2.5604    0.0000 O   0  0  0  0  0  0  0  0  0  0  0  0
   -3.2665    3.3809    0.0000 C   0  0  0  0  0  0  0  0  0  0  0  0
   -2.4595    3.5524    0.0000 N   0  0  0  0  0  0  0  0  0  0  0  0
   -2.0470    2.8379    0.0000 C   0  0  0  0  0  0  0  0  0  0  0  0
   -1.2400    2.6664    0.0000 C   0  0  0  0  0  0  0  0  0  0  0  0
   -0.9851    1.8818    0.0000 C   0  0  0  0  0  0  0  0  0  0  0  0
   -1.5371    1.2687    0.0000 C   0  0  0  0  0  0  0  0  0  0  0  0
   -2.3441    1.4402    0.0000 C   0  0  0  0  0  0  0  0  0  0  0  0
   -0.1781    1.7103    0.0000 C   0  0  0  0  0  0  0  0  0  0  0  0
    0.3739    2.3234    0.0000 O   0  0  0  0  0  0  0  0  0  0  0  0
    0.8838    0.7541    0.0000 N   0  0  0  0  0  0  0  0  0  0  0  0
    0.0768    0.9256    0.0000 N   0  0  0  0  0  0  0  0  0  0  0  0
    0.6538   -0.6979    0.0000 C   0  0  0  0  0  0  0  0  0  0  0  0
    1.1387   -0.0305    0.0000 C   0  0  0  0  0  0  0  0  0  0  0  0
    1.9233   -0.2854    0.0000 C   0  0  0  0  0  0  0  0  0  0  0  0
    2.6378    0.1271    0.0000 C   0  0  0  0  0  0  0  0  0  0  0  0
    3.3523   -0.2854    0.0000 C   0  0  0  0  0  0  0  0  0  0  0  0
    3.3523   -1.1104    0.0000 C   0  0  0  0  0  0  0  0  0  0  0  0
    2.6378   -1.5229    0.0000 C   0  0  0  0  0  0  0  0  0  0  0  0
    1.9233   -1.1104    0.0000 C   0  0  0  0  0  0  0  0  0  0  0  0
    1.1387   -1.3654    0.0000 N   0  0  0  0  0  0  0  0  0  0  0  0
   -0.1712   -0.6979    0.0000 O   0  0  0  0  0  0  0  0  0  0  0  0
    2.6378   -2.3479    0.0000 C   0  0  0  0  0  0  0  0  0  0  0  0
    3.3523   -2.7604    0.0000 O   0  0  0  0  0  0  0  0  0  0  0  0
    1.9233   -2.7604    0.0000 O   0  0  0  0  0  0  0  0  0  0  0  0
   -3.8796    3.9329    0.0000 N   0  0  0  0  0  0  0  0  0  0  0  0
  1  2  1  0  0  0  0
  2  3  1  0  0  0  0
  3  4  2  0  0  0  0
  4  5  1  0  0  0  0
  1  5  2  0  0  0  0
  5  6  1  0  0  0  0
  6  7  2  0  0  0  0
  7  8  1  0  0  0  0
  8  9  2  0  0  0  0
  1  9  1  0  0  0  0
 10 11  2  0  0  0  0
  7 10  1  0  0  0  0
 12 13  1  4  0  0  0
 14 15  1  0  0  0  0
 15 16  1  0  0  0  0
 16 17  2  0  0  0  0
 17 18  1  0  0  0  0
 18 19  2  0  0  0  0
 19 20  1  0  0  0  0
 20 21  2  0  0  0  0
 16 21  1  0  0  0  0
 21 22  1  0  0  0  0
 14 22  1  0  0  0  0
 14 23  2  0  0  0  0
 24 25  1  0  0  0  0
 24 26  2  0  0  0  0
 20 24  1  0  0  0  0
 12 15  2  0  0  0  0
 10 13  1  0  0  0  0
  3 27  1  0  0  0  0
M  END
>  <type>
systematic

$$$$
5-Thia-1-azabicyclo[4.2.0]oct-2-ene-2-carboxylic acid, 7-[[(2,3-dihydro-2-imino-3-methoxy-4-thiazolyl)hydroxyacetyl]amino]-8-oxo-, [6 R-(6α,7β)]-
  Mrv2401 11022420142D          

 25 27  0  0  1  0            999 V2000
    1.6905   -0.1510    0.0000 N   0  0  0  0  0  0  0  0  0  0  0  0
    2.4049    0.2615    0.0000 C   0  0  0  0  0  0  0  0  0  0  0  0
    3.1194   -0.1510    0.0000 C   0  0  0  0  0  0  0  0  0  0  0  0
    3.1194   -0.9760    0.0000 C   0  0  0  0  0  0  0  0  0  0  0  0
    2.4049   -1.3885    0.0000 S   0  0  0  0  0  0  0  0  0  0  0  0
    1.6905   -0.9760    0.0000 C   0  0  2  0  0  0  0  0  0  0  0  0
    0.8655   -0.9760    0.0000 C   0  0  2  0  0  0  0  0  0  0  0  0
    0.8655   -0.1510    0.0000 C   0  0  0  0  0  0  0  0  0  0  0  0
    2.4049    1.0865    0.0000 C   0  0  0  0  0  0  0  0  0  0  0  0
    3.1194    1.4990    0.0000 O   0  0  0  0  0  0  0  0  0  0  0  0
    1.6905    1.4990    0.0000 O   0  0  0  0  0  0  0  0  0  0  0  0
    0.2821    0.4324    0.0000 O   0  0  0  0  0  0  0  0  0  0  0  0
    0.2821   -1.5593    0.0000 N   0  0  0  0  0  0  0  0  0  0  0  0
    0.4956   -2.3562    0.0000 C   0  0  0  0  0  0  0  0  0  0  0  0
    1.2925   -2.5698    0.0000 O   0  0  0  0  0  0  0  0  0  0  0  0
   -0.0877   -2.9396    0.0000 C   0  0  0  0  0  0  0  0  0  0  0  0
   -0.8846   -2.7261    0.0000 O   0  0  0  0  0  0  0  0  0  0  0  0
    0.8528   -4.8560    0.0000 S   0  0  0  0  0  0  0  0  0  0  0  0
    0.0559   -5.0695    0.0000 C   0  0  0  0  0  0  0  0  0  0  0  0
   -0.3934   -4.3776    0.0000 N   0  0  0  0  0  0  0  0  0  0  0  0
    0.1258   -3.7365    0.0000 C   0  0  0  0  0  0  0  0  0  0  0  0
    0.8960   -4.0321    0.0000 C   0  0  0  0  0  0  0  0  0  0  0  0
   -1.2173   -4.3345    0.0000 O   0  0  0  0  0  0  0  0  0  0  0  0
   -1.6666   -5.0264    0.0000 C   0  0  0  0  0  0  0  0  0  0  0  0
   -0.2397   -5.8397    0.0000 N   0  0  0  0  0  0  0  0  0  0  0  0
  1  2  1  0  0  0  0
  2  3  2  0  0  0  0
  3  4  1  0  0  0  0
  4  5  1  0  0  0  0
  6  5  1  0  0  0  0
  6  1  1  6  0  0  0
  6  7  1  0  0  0  0
  7  8  1  0  0  0  0
  1  8  1  0  0  0  0
  9 10  1  0  0  0  0
  9 11  2  0  0  0  0
  2  9  1  0  0  0  0
  8 12  2  0  0  0  0
 14 15  2  0  0  0  0
 14 16  1  0  0  0  0
 16 17  1  0  0  0  0
 18 19  1  0  0  0  0
 19 20  1  0  0  0  0
 20 21  1  0  0  0  0
 21 22  2  0  0  0  0
 18 22  1  0  0  0  0
 23 24  1  0  0  0  0
 20 23  1  0  0  0  0
 19 25  2  0  0  0  0
 16 21  1  0  0  0  0
 13 14  1  0  0  0  0
  7 13  1  1  0  0  0
M  END
>  <type>
systematic

$$$$
5-(4-Chlorophenyl)-2,3-dihydro-2-[[(2S)-2-hydroxy-2-phenylacetyl]amino]-1H-indene-2-carboxylic acid
  Mrv2401 11022420152D          

 30 33  0  0  1  0            999 V2000
    0.6538   -0.6979    0.0000 C   0  0  0  0  0  0  0  0  0  0  0  0
    1.1387   -0.0305    0.0000 C   0  0  0  0  0  0  0  0  0  0  0  0
    1.9233   -0.2854    0.0000 C   0  0  0  0  0  0  0  0  0  0  0  0
    2.6378    0.1271    0.0000 C   0  0  0  0  0  0  0  0  0  0  0  0
    3.3523   -0.2854    0.0000 C   0  0  0  0  0  0  0  0  0  0  0  0
    3.3523   -1.1104    0.0000 C   0  0  0  0  0  0  0  0  0  0  0  0
    2.6378   -1.5229    0.0000 C   0  0  0  0  0  0  0  0  0  0  0  0
    1.9233   -1.1104    0.0000 C   0  0  0  0  0  0  0  0  0  0  0  0
    1.1387   -1.3654    0.0000 C   0  0  0  0  0  0  0  0  0  0  0  0
   -0.0650   -0.2929    0.0000 C   0  0  0  0  0  0  0  0  0  0  0  0
   -0.7751   -0.7129    0.0000 O   0  0  0  0  0  0  0  0  0  0  0  0
   -0.0736    0.5320    0.0000 O   0  0  0  0  0  0  0  0  0  0  0  0
   -0.0650   -1.1029    0.0000 N   0  0  0  0  0  0  0  0  0  0  0  0
   -0.0736   -1.9279    0.0000 C   0  0  0  0  0  0  0  0  0  0  0  0
    0.6365   -2.3479    0.0000 O   0  0  0  0  0  0  0  0  0  0  0  0
   -0.7923   -2.3329    0.0000 C   0  0  2  0  0  0  0  0  0  0  0  0
   -0.8010   -3.1578    0.0000 C   0  0  0  0  0  0  0  0  0  0  0  0
   -0.0909   -3.5778    0.0000 C   0  0  0  0  0  0  0  0  0  0  0  0
   -0.0995   -4.4028    0.0000 C   0  0  0  0  0  0  0  0  0  0  0  0
   -0.8183   -4.8078    0.0000 C   0  0  0  0  0  0  0  0  0  0  0  0
   -1.5284   -4.3878    0.0000 C   0  0  0  0  0  0  0  0  0  0  0  0
   -1.5197   -3.5628    0.0000 C   0  0  0  0  0  0  0  0  0  0  0  0
   -1.5025   -1.9129    0.0000 O   0  0  0  0  0  0  0  0  0  0  0  0
    4.0668   -1.5229    0.0000 C   0  0  0  0  0  0  0  0  0  0  0  0
    4.7812   -1.1104    0.0000 C   0  0  0  0  0  0  0  0  0  0  0  0
    5.4957   -1.5229    0.0000 C   0  0  0  0  0  0  0  0  0  0  0  0
    5.4957   -2.3479    0.0000 C   0  0  0  0  0  0  0  0  0  0  0  0
    4.7812   -2.7604    0.0000 C   0  0  0  0  0  0  0  0  0  0  0  0
    4.0668   -2.3479    0.0000 C   0  0  0  0  0  0  0  0  0  0  0  0
    6.2102   -2.7604    0.0000 Cl  0  0  0  0  0  0  0  0  0  0  0  0
  1  2  1  0  0  0  0
  2  3  1  0  0  0  0
  3  4  2  0  0  0  0
  4  5  1  0  0  0  0
  5  6  2  0  0  0  0
  6  7  1  0  0  0  0
  7  8  2  0  0  0  0
  3  8  1  0  0  0  0
  8  9  1  0  0  0  0
  1  9  1  0  0  0  0
 10 11  1  0  0  0  0
 10 12  2  0  0  0  0
  1 10  1  0  0  0  0
 14 15  2  0  0  0  0
 16 14  1  0  0  0  0
 17 18  2  0  0  0  0
 18 19  1  0  0  0  0
 19 20  2  0  0  0  0
 20 21  1  0  0  0  0
 21 22  2  0  0  0  0
 17 22  1  0  0  0  0
 16 17  1  0  0  0  0
 16 23  1  6  0  0  0
 13 14  1  0  0  0  0
  1 13  1  0  0  0  0
 24 25  2  0  0  0  0
 25 26  1  0  0  0  0
 26 27  2  0  0  0  0
 27 28  1  0  0  0  0
 28 29  2  0  0  0  0
 24 29  1  0  0  0  0
 27 30  1  0  0  0  0
  6 24  1  0  0  0  0
M  END
>  <type>
systematic

$$$$
4-[[2-[1-[(4-Fluorophenyl)methyl]-1H-pyrrolo[2,3- b ]pyridin-3-yl]-2-oxoacetyl]amino]benzoic acid
  Mrv2401 11022420162D          

 31 34  0  0  0  0            999 V2000
    0.9136    5.1016    0.0000 C   0  0  0  0  0  0  0  0  0  0  0  0
    1.4657    5.7147    0.0000 C   0  0  0  0  0  0  0  0  0  0  0  0
    1.2107    6.4993    0.0000 O   0  0  0  0  0  0  0  0  0  0  0  0
    2.2726    5.5431    0.0000 O   0  0  0  0  0  0  0  0  0  0  0  0
    1.1686    4.3169    0.0000 C   0  0  0  0  0  0  0  0  0  0  0  0
    0.6165    3.7038    0.0000 C   0  0  0  0  0  0  0  0  0  0  0  0
   -0.1904    3.8754    0.0000 C   0  0  0  0  0  0  0  0  0  0  0  0
   -0.4454    4.6600    0.0000 C   0  0  0  0  0  0  0  0  0  0  0  0
    0.1067    5.2731    0.0000 C   0  0  0  0  0  0  0  0  0  0  0  0
   -0.7425    3.2623    0.0000 N   0  0  0  0  0  0  0  0  0  0  0  0
   -0.4875    2.4777    0.0000 C   0  0  0  0  0  0  0  0  0  0  0  0
    0.3194    2.3061    0.0000 O   0  0  0  0  0  0  0  0  0  0  0  0
   -1.0396    1.8646    0.0000 C   0  0  0  0  0  0  0  0  0  0  0  0
   -1.8465    2.0361    0.0000 O   0  0  0  0  0  0  0  0  0  0  0  0
    0.7145   -0.4125    0.0000 N   0  0  0  0  0  0  0  0  0  0  0  0
    0.7145    1.2375    0.0000 C   0  0  0  0  0  0  0  0  0  0  0  0
    1.4289    0.8250    0.0000 C   0  0  0  0  0  0  0  0  0  0  0  0
    1.4289    0.0000    0.0000 C   0  0  0  0  0  0  0  0  0  0  0  0
   -0.7846   -0.2549    0.0000 N   0  0  0  0  0  0  0  0  0  0  0  0
   -0.0000   -0.0000    0.0000 C   0  0  0  0  0  0  0  0  0  0  0  0
    0.0000    0.8250    0.0000 C   0  0  0  0  0  0  0  0  0  0  0  0
   -0.7846    1.0799    0.0000 C   0  0  0  0  0  0  0  0  0  0  0  0
   -1.2695    0.4125    0.0000 C   0  0  0  0  0  0  0  0  0  0  0  0
   -1.0396   -1.0396    0.0000 C   0  0  0  0  0  0  0  0  0  0  0  0
   -1.8465   -1.2111    0.0000 C   0  0  0  0  0  0  0  0  0  0  0  0
   -2.1015   -1.9957    0.0000 C   0  0  0  0  0  0  0  0  0  0  0  0
   -2.9084   -2.1672    0.0000 C   0  0  0  0  0  0  0  0  0  0  0  0
   -3.4605   -1.5541    0.0000 C   0  0  0  0  0  0  0  0  0  0  0  0
   -3.2055   -0.7695    0.0000 C   0  0  0  0  0  0  0  0  0  0  0  0
   -2.3986   -0.5980    0.0000 C   0  0  0  0  0  0  0  0  0  0  0  0
   -4.2674   -1.7257    0.0000 F   0  0  0  0  0  0  0  0  0  0  0  0
  1  2  1  0  0  0  0
  2  3  1  0  0  0  0
  2  4  2  0  0  0  0
  1  5  2  0  0  0  0
  5  6  1  0  0  0  0
  6  7  2  0  0  0  0
  7  8  1  0  0  0  0
  8  9  2  0  0  0  0
  1  9  1  0  0  0  0
 11 12  2  0  0  0  0
 11 13  1  0  0  0  0
 13 14  2  0  0  0  0
 15 20  1  0  0  0  0
 21 16  1  0  0  0  0
 16 17  2  0  0  0  0
 17 18  1  0  0  0  0
 15 18  2  0  0  0  0
 19 20  1  0  0  0  0
 20 21  2  0  0  0  0
 21 22  1  0  0  0  0
 22 23  2  0  0  0  0
 19 23  1  0  0  0  0
 25 26  2  0  0  0  0
 26 27  1  0  0  0  0
 27 28  2  0  0  0  0
 28 29  1  0  0  0  0
 29 30  2  0  0  0  0
 25 30  1  0  0  0  0
 28 31  1  0  0  0  0
 24 25  1  0  0  0  0
 19 24  1  0  0  0  0
 13 22  1  0  0  0  0
 10 11  1  0  0  0  0
  7 10  1  0  0  0  0
M  END
>  <type>
systematic

$$$$

  Mrv2401 11022420222D          

 24 26  0  0  1  0            999 V2000
    1.6905   -0.1510    0.0000 N   0  0  0  0  0  0  0  0  0  0  0  0
    2.4049    0.2615    0.0000 C   0  0  0  0  0  0  0  0  0  0  0  0
    3.1194   -0.1510    0.0000 C   0  0  0  0  0  0  0  0  0  0  0  0
    3.1194   -0.9760    0.0000 C   0  0  0  0  0  0  0  0  0  0  0  0
    2.4049   -1.3885    0.0000 S   0  0  0  0  0  0  0  0  0  0  0  0
    1.6905   -0.9760    0.0000 C   0  0  2  0  0  0  0  0  0  0  0  0
    0.8655   -0.9760    0.0000 C   0  0  2  0  0  0  0  0  0  0  0  0
    0.8655   -0.1510    0.0000 C   0  0  0  0  0  0  0  0  0  0  0  0
    2.4049    1.0865    0.0000 C   0  0  0  0  0  0  0  0  0  0  0  0
    3.1194    1.4990    0.0000 O   0  0  0  0  0  0  0  0  0  0  0  0
    1.6905    1.4990    0.0000 O   0  0  0  0  0  0  0  0  0  0  0  0
    0.2821    0.4324    0.0000 O   0  0  0  0  0  0  0  0  0  0  0  0
    0.2821   -1.5593    0.0000 N   0  0  0  0  0  0  0  0  0  0  0  0
    0.4956   -2.3562    0.0000 C   0  0  0  0  0  0  0  0  0  0  0  0
    1.2925   -2.5698    0.0000 O   0  0  0  0  0  0  0  0  0  0  0  0
   -0.0877   -2.9396    0.0000 C   0  0  0  0  0  0  0  0  0  0  0  0
   -0.8846   -2.7261    0.0000 O   0  0  0  0  0  0  0  0  0  0  0  0
    0.8528   -4.8560    0.0000 S   0  0  0  0  0  0  0  0  0  0  0  0
    0.0559   -5.0695    0.0000 C   0  0  0  0  0  0  0  0  0  0  0  0
   -0.3934   -4.3776    0.0000 N   0  0  0  0  0  0  0  0  0  0  0  0
    0.1258   -3.7365    0.0000 C   0  0  0  0  0  0  0  0  0  0  0  0
    0.8960   -4.0321    0.0000 C   0  0  0  0  0  0  0  0  0  0  0  0
   -0.2397   -5.8397    0.0000 N   0  0  0  0  0  0  0  0  0  0  0  0
   -1.2173   -4.3345    0.0000 N   0  0  0  0  0  0  0  0  0  0  0  0
  1  2  1  0  0  0  0
  2  3  2  0  0  0  0
  3  4  1  0  0  0  0
  4  5  1  0  0  0  0
  6  5  1  0  0  0  0
  6  1  1  6  0  0  0
  6  7  1  0  0  0  0
  7  8  1  0  0  0  0
  1  8  1  0  0  0  0
  9 10  1  0  0  0  0
  9 11  2  0  0  0  0
  2  9  1  0  0  0  0
  8 12  2  0  0  0  0
 14 15  2  0  0  0  0
 14 16  1  0  0  0  0
 16 17  2  0  0  0  0
 18 19  1  0  0  0  0
 19 20  1  0  0  0  0
 20 21  1  0  0  0  0
 21 22  2  0  0  0  0
 18 22  1  0  0  0  0
 19 23  2  0  0  0  0
 16 21  1  0  0  0  0
 13 14  1  0  0  0  0
  7 13  1  1  0  0  0
 20 24  1  0  0  0  0
M  END
>  <type>
systematic

$$$$
5-Thia-1-azabicyclo[4.2.0]oct-2-ene-2-carboxylic acid, 3-[[(aminoiminomethyl)thio]methyl]-7-[(hydroxyphenylacetyl)amino]-8-oxo-, [6 R-[6α,7β(R*)]]-
  Mrv2401 11022420232D          

  0  0  0     0  0            999 V3000
M  V30 BEGIN CTAB
M  V30 COUNTS 28 30 0 0 1
M  V30 BEGIN ATOM
M  V30 1 N 3.1555 -0.2818 0 0
M  V30 2 C 4.4892 0.4882 0 0
M  V30 3 C 5.8229 -0.2818 0 0
M  V30 4 C 5.8229 -1.8218 0 0
M  V30 5 S 4.4892 -2.5918 0 0
M  V30 6 C 3.1555 -1.8218 0 0 CFG=2
M  V30 7 C 1.6155 -1.8218 0 0 CFG=1
M  V30 8 C 1.6155 -0.2818 0 0
M  V30 9 C 4.4892 2.0282 0 0
M  V30 10 O 5.8229 2.7982 0 0
M  V30 11 O 3.1555 2.7982 0 0
M  V30 12 O 0.5266 0.8071 0 0
M  V30 13 N 0.5266 -2.9108 0 0
M  V30 14 C -0.961 -2.5122 0 0
M  V30 15 O -1.3595 -1.0247 0 0
M  V30 16 C -2.0499 -3.6011 0 0
M  V30 17 C -3.5374 -3.2026 0 0
M  V30 18 C -4.6264 -4.2915 0 0
M  V30 19 C -6.1139 -3.8929 0 0
M  V30 20 C -6.5125 -2.4054 0 0
M  V30 21 C -5.4235 -1.3165 0 0
M  V30 22 C -3.936 -1.715 0 0
M  V30 23 O -1.6513 -5.0887 0 0
M  V30 24 C 7.1566 0.4882 0 0
M  V30 25 S 7.1566 2.0282 0 0
M  V30 26 C 8.4902 2.7982 0 0
M  V30 27 N 8.4902 4.3382 0 0
M  V30 28 N 9.8239 2.0282 0 0
M  V30 END ATOM
M  V30 BEGIN BOND
M  V30 1 1 1 2
M  V30 2 2 2 3
M  V30 3 1 3 4
M  V30 4 1 4 5
M  V30 5 1 6 5
M  V30 6 1 6 1 CFG=3
M  V30 7 1 6 7
M  V30 8 1 7 8
M  V30 9 1 1 8
M  V30 10 1 9 10
M  V30 11 2 9 11
M  V30 12 1 2 9
M  V30 13 2 8 12
M  V30 14 2 14 15
M  V30 15 1 14 16
M  V30 16 2 17 18
M  V30 17 1 18 19
M  V30 18 2 19 20
M  V30 19 1 20 21
M  V30 20 2 21 22
M  V30 21 1 17 22
M  V30 22 1 16 17
M  V30 23 1 16 23
M  V30 24 1 13 14
M  V30 25 1 7 13 CFG=3
M  V30 26 2 26 27
M  V30 27 1 26 28
M  V30 28 1 25 26
M  V30 29 1 24 25
M  V30 30 1 3 24
M  V30 END BOND
M  V30 BEGIN COLLECTION
M  V30 MDLV30/STEREL1 ATOMS=(1 7)
M  V30 END COLLECTION
M  V30 END CTAB
M  END
>  <type>
systematic

$$$$
5-Thia-1-azabicyclo[4.2.0]oct-2-ene-2-carboxylic acid, 7-[[(2-amino-4-thiazolyl)hydroxyacetyl]amino]-3-methyl-8-oxo-,[6 R-(6α,7β)]-
  Mrv2401 11022420242D          

 24 26  0  0  1  0            999 V2000
    1.6905   -0.1510    0.0000 N   0  0  0  0  0  0  0  0  0  0  0  0
    2.4049    0.2615    0.0000 C   0  0  0  0  0  0  0  0  0  0  0  0
    3.1194   -0.1510    0.0000 C   0  0  0  0  0  0  0  0  0  0  0  0
    3.1194   -0.9760    0.0000 C   0  0  0  0  0  0  0  0  0  0  0  0
    2.4049   -1.3885    0.0000 S   0  0  0  0  0  0  0  0  0  0  0  0
    1.6905   -0.9760    0.0000 C   0  0  2  0  0  0  0  0  0  0  0  0
    0.8655   -0.9760    0.0000 C   0  0  2  0  0  0  0  0  0  0  0  0
    0.8655   -0.1510    0.0000 C   0  0  0  0  0  0  0  0  0  0  0  0
    2.4049    1.0865    0.0000 C   0  0  0  0  0  0  0  0  0  0  0  0
    3.1194    1.4990    0.0000 O   0  0  0  0  0  0  0  0  0  0  0  0
    1.6905    1.4990    0.0000 O   0  0  0  0  0  0  0  0  0  0  0  0
    0.2821    0.4324    0.0000 O   0  0  0  0  0  0  0  0  0  0  0  0
    3.8339    0.2615    0.0000 C   0  0  0  0  0  0  0  0  0  0  0  0
    0.2821   -1.5593    0.0000 N   0  0  0  0  0  0  0  0  0  0  0  0
    0.4956   -2.3562    0.0000 C   0  0  0  0  0  0  0  0  0  0  0  0
    1.2925   -2.5698    0.0000 O   0  0  0  0  0  0  0  0  0  0  0  0
   -0.0877   -2.9396    0.0000 C   0  0  0  0  0  0  0  0  0  0  0  0
   -0.8846   -2.7261    0.0000 O   0  0  0  0  0  0  0  0  0  0  0  0
    0.8528   -4.8560    0.0000 S   0  0  0  0  0  0  0  0  0  0  0  0
    0.0559   -5.0695    0.0000 C   0  0  0  0  0  0  0  0  0  0  0  0
   -0.3934   -4.3776    0.0000 N   0  0  0  0  0  0  0  0  0  0  0  0
    0.1258   -3.7365    0.0000 C   0  0  0  0  0  0  0  0  0  0  0  0
    0.8960   -4.0321    0.0000 C   0  0  0  0  0  0  0  0  0  0  0  0
   -0.2397   -5.8397    0.0000 N   0  0  0  0  0  0  0  0  0  0  0  0
  1  2  1  0  0  0  0
  2  3  2  0  0  0  0
  3  4  1  0  0  0  0
  4  5  1  0  0  0  0
  6  5  1  0  0  0  0
  6  1  1  6  0  0  0
  6  7  1  0  0  0  0
  7  8  1  0  0  0  0
  1  8  1  0  0  0  0
  9 10  1  0  0  0  0
  9 11  2  0  0  0  0
  2  9  1  0  0  0  0
  8 12  2  0  0  0  0
  3 13  1  0  0  0  0
 15 16  2  0  0  0  0
 15 17  1  0  0  0  0
 17 18  1  0  0  0  0
 19 20  1  0  0  0  0
 20 21  2  0  0  0  0
 21 22  1  0  0  0  0
 22 23  2  0  0  0  0
 19 23  1  0  0  0  0
 20 24  1  0  0  0  0
 17 22  1  0  0  0  0
 14 15  1  0  0  0  0
  7 14  1  1  0  0  0
M  END
>  <type>
systematic

$$$$
5-Thia-1-azabicyclo[4.2.0]oct-2-ene-2-carboxylic acid, 7-[(hydroxyphenylacetyl)amino]-8-oxo-3-(3-pyridinylmethyl)-, [6 R-[6α,7β(R*)]]-
  Mrv2401 11022420252D          

  0  0  0     0  0            999 V3000
M  V30 BEGIN CTAB
M  V30 COUNTS 30 33 0 0 1
M  V30 BEGIN ATOM
M  V30 1 N 3.1555 -0.2818 0 0
M  V30 2 C 4.4892 0.4882 0 0
M  V30 3 C 5.8229 -0.2818 0 0
M  V30 4 C 5.8229 -1.8218 0 0
M  V30 5 S 4.4892 -2.5918 0 0
M  V30 6 C 3.1555 -1.8218 0 0 CFG=2
M  V30 7 C 1.6155 -1.8218 0 0 CFG=1
M  V30 8 C 1.6155 -0.2818 0 0
M  V30 9 C 4.4892 2.0282 0 0
M  V30 10 O 5.8229 2.7982 0 0
M  V30 11 O 3.1555 2.7982 0 0
M  V30 12 C 7.1566 0.4882 0 0
M  V30 13 N 9.8239 -2.5918 0 0
M  V30 14 C 8.4902 -1.8218 0 0
M  V30 15 C 8.4902 -0.2818 0 0
M  V30 16 C 9.8239 0.4882 0 0
M  V30 17 C 11.1576 -0.2818 0 0
M  V30 18 C 11.1576 -1.8218 0 0
M  V30 19 O 0.5266 0.8071 0 0
M  V30 20 N 0.5266 -2.9108 0 0
M  V30 21 C -0.961 -2.5122 0 0
M  V30 22 O -1.3595 -1.0247 0 0
M  V30 23 C -2.0499 -3.6011 0 0
M  V30 24 C -3.5374 -3.2026 0 0
M  V30 25 C -4.6264 -4.2915 0 0
M  V30 26 C -6.1139 -3.8929 0 0
M  V30 27 C -6.5125 -2.4054 0 0
M  V30 28 C -5.4235 -1.3165 0 0
M  V30 29 C -3.936 -1.715 0 0
M  V30 30 O -1.6513 -5.0887 0 0
M  V30 END ATOM
M  V30 BEGIN BOND
M  V30 1 1 1 2
M  V30 2 2 2 3
M  V30 3 1 3 4
M  V30 4 1 4 5
M  V30 5 1 6 5
M  V30 6 1 6 1 CFG=3
M  V30 7 1 6 7
M  V30 8 1 7 8
M  V30 9 1 1 8
M  V30 10 1 9 10
M  V30 11 2 9 11
M  V30 12 1 2 9
M  V30 13 2 13 14
M  V30 14 1 14 15
M  V30 15 2 15 16
M  V30 16 1 16 17
M  V30 17 2 17 18
M  V30 18 1 13 18
M  V30 19 1 12 15
M  V30 20 1 3 12
M  V30 21 2 8 19
M  V30 22 2 21 22
M  V30 23 1 21 23
M  V30 24 2 24 25
M  V30 25 1 25 26
M  V30 26 2 26 27
M  V30 27 1 27 28
M  V30 28 2 28 29
M  V30 29 1 24 29
M  V30 30 1 23 24
M  V30 31 1 23 30
M  V30 32 1 20 21
M  V30 33 1 7 20 CFG=3
M  V30 END BOND
M  V30 BEGIN COLLECTION
M  V30 MDLV30/STEREL1 ATOMS=(1 7)
M  V30 END COLLECTION
M  V30 END CTAB
M  END
>  <type>
systematic

$$$$
5-Thia-1-azabicyclo[4.2.0]oct-2-ene-2-carboxylic acid, 7-[[(2,3-dihydro-5-benzofuranyl)hydroxyacetyl]amino]-3-methyl-8-oxo-, [6 R-(6α,7β)]-
  Mrv2401 11022420262D          

 27 30  0  0  1  0            999 V2000
   -2.1263   -3.5203    0.0000 N   0  0  0  0  0  0  0  0  0  0  0  0
   -2.9502   -3.4771    0.0000 C   0  0  0  0  0  0  0  0  0  0  0  0
   -3.3247   -2.7420    0.0000 C   0  0  0  0  0  0  0  0  0  0  0  0
   -2.8754   -2.0501    0.0000 C   0  0  0  0  0  0  0  0  0  0  0  0
   -2.0515   -2.0933    0.0000 S   0  0  0  0  0  0  0  0  0  0  0  0
   -1.6770   -2.8284    0.0000 C   0  0  2  0  0  0  0  0  0  0  0  0
   -0.9851   -3.2777    0.0000 C   0  0  2  0  0  0  0  0  0  0  0  0
   -1.4344   -3.9696    0.0000 C   0  0  0  0  0  0  0  0  0  0  0  0
   -3.3995   -4.1690    0.0000 C   0  0  0  0  0  0  0  0  0  0  0  0
   -4.2234   -4.1258    0.0000 O   0  0  0  0  0  0  0  0  0  0  0  0
   -3.0250   -4.9041    0.0000 O   0  0  0  0  0  0  0  0  0  0  0  0
   -1.2629   -4.7766    0.0000 O   0  0  0  0  0  0  0  0  0  0  0  0
   -4.1486   -2.6988    0.0000 C   0  0  0  0  0  0  0  0  0  0  0  0
   -0.1781   -3.1062    0.0000 N   0  0  0  0  0  0  0  0  0  0  0  0
    0.0768   -2.3215    0.0000 C   0  0  0  0  0  0  0  0  0  0  0  0
   -0.4752   -1.7084    0.0000 O   0  0  0  0  0  0  0  0  0  0  0  0
    0.8838   -2.1500    0.0000 C   0  0  0  0  0  0  0  0  0  0  0  0
    1.4358   -2.7631    0.0000 O   0  0  0  0  0  0  0  0  0  0  0  0
    1.1387   -1.3654    0.0000 C   0  0  0  0  0  0  0  0  0  0  0  0
    0.6538   -0.6979    0.0000 C   0  0  0  0  0  0  0  0  0  0  0  0
    1.1387   -0.0305    0.0000 C   0  0  0  0  0  0  0  0  0  0  0  0
    1.9233   -0.2854    0.0000 C   0  0  0  0  0  0  0  0  0  0  0  0
    2.6378    0.1271    0.0000 C   0  0  0  0  0  0  0  0  0  0  0  0
    3.3523   -0.2854    0.0000 O   0  0  0  0  0  0  0  0  0  0  0  0
    3.3523   -1.1104    0.0000 C   0  0  0  0  0  0  0  0  0  0  0  0
    2.6378   -1.5229    0.0000 C   0  0  0  0  0  0  0  0  0  0  0  0
    1.9233   -1.1104    0.0000 C   0  0  0  0  0  0  0  0  0  0  0  0
  1  2  1  0  0  0  0
  2  3  2  0  0  0  0
  3  4  1  0  0  0  0
  4  5  1  0  0  0  0
  6  5  1  0  0  0  0
  6  1  1  6  0  0  0
  6  7  1  0  0  0  0
  7  8  1  0  0  0  0
  1  8  1  0  0  0  0
  9 10  1  0  0  0  0
  9 11  2  0  0  0  0
  2  9  1  0  0  0  0
  8 12  2  0  0  0  0
  3 13  1  0  0  0  0
 15 16  2  0  0  0  0
 15 17  1  0  0  0  0
 17 18  1  0  0  0  0
 19 20  1  0  0  0  0
 20 21  1  0  0  0  0
 21 22  1  0  0  0  0
 22 23  2  0  0  0  0
 23 24  1  0  0  0  0
 24 25  1  0  0  0  0
 25 26  2  0  0  0  0
 26 27  1  0  0  0  0
 19 27  2  0  0  0  0
 22 27  1  0  0  0  0
 17 19  1  0  0  0  0
 14 15  1  0  0  0  0
  7 14  1  1  0  0  0
M  END
>  <type>
systematic

$$$$
5-Thia-1-azabicyclo[4.2.0]oct-2-ene-2-carboxylic acid, 3-[(acetyloxy)methyl]-7-[[[4-(ethoxycarbonyl)phenyl]hydroxyacetyl]amino]-8-oxo-, [6 R-(6α,7β)]-
  Mrv2401 11022420262D          

 33 35  0  0  1  0            999 V2000
    1.6905   -0.1510    0.0000 N   0  0  0  0  0  0  0  0  0  0  0  0
    2.4049    0.2615    0.0000 C   0  0  0  0  0  0  0  0  0  0  0  0
    3.1194   -0.1510    0.0000 C   0  0  0  0  0  0  0  0  0  0  0  0
    3.1194   -0.9760    0.0000 C   0  0  0  0  0  0  0  0  0  0  0  0
    2.4049   -1.3885    0.0000 S   0  0  0  0  0  0  0  0  0  0  0  0
    1.6905   -0.9760    0.0000 C   0  0  2  0  0  0  0  0  0  0  0  0
    0.8655   -0.9760    0.0000 C   0  0  2  0  0  0  0  0  0  0  0  0
    0.8655   -0.1510    0.0000 C   0  0  0  0  0  0  0  0  0  0  0  0
    2.4049    1.0865    0.0000 C   0  0  0  0  0  0  0  0  0  0  0  0
    3.1194    1.4990    0.0000 O   0  0  0  0  0  0  0  0  0  0  0  0
    1.6905    1.4990    0.0000 O   0  0  0  0  0  0  0  0  0  0  0  0
    0.2821    0.4324    0.0000 O   0  0  0  0  0  0  0  0  0  0  0  0
    0.2821   -1.5593    0.0000 N   0  0  0  0  0  0  0  0  0  0  0  0
   -0.5148   -1.3458    0.0000 C   0  0  0  0  0  0  0  0  0  0  0  0
   -0.7283   -0.5489    0.0000 O   0  0  0  0  0  0  0  0  0  0  0  0
   -1.0982   -1.9292    0.0000 C   0  0  0  0  0  0  0  0  0  0  0  0
   -0.8846   -2.7261    0.0000 O   0  0  0  0  0  0  0  0  0  0  0  0
   -1.8950   -1.7157    0.0000 C   0  0  0  0  0  0  0  0  0  0  0  0
   -2.4784   -2.2990    0.0000 C   0  0  0  0  0  0  0  0  0  0  0  0
   -3.2753   -2.0855    0.0000 C   0  0  0  0  0  0  0  0  0  0  0  0
   -3.4888   -1.2886    0.0000 C   0  0  0  0  0  0  0  0  0  0  0  0
   -2.9055   -0.7052    0.0000 C   0  0  0  0  0  0  0  0  0  0  0  0
   -2.1086   -0.9188    0.0000 C   0  0  0  0  0  0  0  0  0  0  0  0
   -4.2857   -1.0751    0.0000 C   0  0  0  0  0  0  0  0  0  0  0  0
   -4.8691   -1.6584    0.0000 O   0  0  0  0  0  0  0  0  0  0  0  0
   -4.4992   -0.2782    0.0000 O   0  0  0  0  0  0  0  0  0  0  0  0
   -5.2961   -0.0647    0.0000 C   0  0  0  0  0  0  0  0  0  0  0  0
   -5.5097    0.7322    0.0000 C   0  0  0  0  0  0  0  0  0  0  0  0
    3.8339    0.2615    0.0000 C   0  0  0  0  0  0  0  0  0  0  0  0
    3.8339    1.0865    0.0000 O   0  0  0  0  0  0  0  0  0  0  0  0
    4.5483    1.4990    0.0000 C   0  0  0  0  0  0  0  0  0  0  0  0
    4.5483    2.3240    0.0000 O   0  0  0  0  0  0  0  0  0  0  0  0
    5.2628    1.0865    0.0000 C   0  0  0  0  0  0  0  0  0  0  0  0
  1  2  1  0  0  0  0
  2  3  2  0  0  0  0
  3  4  1  0  0  0  0
  4  5  1  0  0  0  0
  6  5  1  0  0  0  0
  6  1  1  6  0  0  0
  6  7  1  0  0  0  0
  7  8  1  0  0  0  0
  1  8  1  0  0  0  0
  9 10  1  0  0  0  0
  9 11  2  0  0  0  0
  2  9  1  0  0  0  0
  8 12  2  0  0  0  0
 14 15  2  0  0  0  0
 14 16  1  0  0  0  0
 16 17  1  0  0  0  0
 18 19  2  0  0  0  0
 19 20  1  0  0  0  0
 20 21  2  0  0  0  0
 21 22  1  0  0  0  0
 22 23  2  0  0  0  0
 18 23  1  0  0  0  0
 24 25  2  0  0  0  0
 27 28  1  0  0  0  0
 26 27  1  0  0  0  0
 24 26  1  0  0  0  0
 21 24  1  0  0  0  0
 16 18  1  0  0  0  0
 13 14  1  0  0  0  0
  7 13  1  1  0  0  0
 30 31  1  0  0  0  0
 31 32  2  0  0  0  0
 31 33  1  0  0  0  0
 29 30  1  0  0  0  0
  3 29  1  0  0  0  0
M  END
>  <type>
systematic

$$$$

  Mrv2401 11022420312D          

 29 31  0  0  1  0            999 V2000
    1.6905   -0.1510    0.0000 N   0  0  0  0  0  0  0  0  0  0  0  0
    2.4049    0.2615    0.0000 C   0  0  0  0  0  0  0  0  0  0  0  0
    3.1194   -0.1510    0.0000 C   0  0  0  0  0  0  0  0  0  0  0  0
    3.1194   -0.9760    0.0000 C   0  0  0  0  0  0  0  0  0  0  0  0
    2.4049   -1.3885    0.0000 S   0  0  0  0  0  0  0  0  0  0  0  0
    1.6905   -0.9760    0.0000 C   0  0  2  0  0  0  0  0  0  0  0  0
    0.8655   -0.9760    0.0000 C   0  0  2  0  0  0  0  0  0  0  0  0
    0.8655   -0.1510    0.0000 C   0  0  0  0  0  0  0  0  0  0  0  0
    2.4049    1.0865    0.0000 C   0  0  0  0  0  0  0  0  0  0  0  0
    3.1194    1.4990    0.0000 O   0  0  0  0  0  0  0  0  0  0  0  0
    1.6905    1.4990    0.0000 O   0  0  0  0  0  0  0  0  0  0  0  0
    0.2821    0.4324    0.0000 O   0  0  0  0  0  0  0  0  0  0  0  0
    0.2821   -1.5593    0.0000 N   0  0  0  0  0  0  0  0  0  0  0  0
   -0.5148   -1.3458    0.0000 C   0  0  0  0  0  0  0  0  0  0  0  0
   -0.7283   -0.5489    0.0000 O   0  0  0  0  0  0  0  0  0  0  0  0
   -1.0982   -1.9292    0.0000 C   0  0  0  0  0  0  0  0  0  0  0  0
   -0.8846   -2.7261    0.0000 O   0  0  0  0  0  0  0  0  0  0  0  0
   -1.8950   -1.7157    0.0000 C   0  0  0  0  0  0  0  0  0  0  0  0
   -2.4784   -2.2990    0.0000 C   0  0  0  0  0  0  0  0  0  0  0  0
   -3.2753   -2.0855    0.0000 C   0  0  0  0  0  0  0  0  0  0  0  0
   -3.4888   -1.2886    0.0000 C   0  0  0  0  0  0  0  0  0  0  0  0
   -2.9055   -0.7052    0.0000 C   0  0  0  0  0  0  0  0  0  0  0  0
   -2.1086   -0.9188    0.0000 C   0  0  0  0  0  0  0  0  0  0  0  0
   -4.2857   -1.0751    0.0000 N   0  0  0  0  0  0  0  0  0  0  0  0
    3.8339    0.2615    0.0000 C   0  0  0  0  0  0  0  0  0  0  0  0
    3.8339    1.0865    0.0000 O   0  0  0  0  0  0  0  0  0  0  0  0
    4.5483    1.4990    0.0000 C   0  0  0  0  0  0  0  0  0  0  0  0
    4.5483    2.3240    0.0000 O   0  0  0  0  0  0  0  0  0  0  0  0
    5.2628    1.0865    0.0000 C   0  0  0  0  0  0  0  0  0  0  0  0
  1  2  1  0  0  0  0
  2  3  2  0  0  0  0
  3  4  1  0  0  0  0
  4  5  1  0  0  0  0
  6  5  1  0  0  0  0
  6  1  1  6  0  0  0
  6  7  1  0  0  0  0
  7  8  1  0  0  0  0
  1  8  1  0  0  0  0
  9 10  1  0  0  0  0
  9 11  2  0  0  0  0
  2  9  1  0  0  0  0
  8 12  2  0  0  0  0
 14 15  2  0  0  0  0
 14 16  1  0  0  0  0
 16 17  2  0  0  0  0
 18 19  2  0  0  0  0
 19 20  1  0  0  0  0
 20 21  2  0  0  0  0
 21 22  1  0  0  0  0
 22 23  2  0  0  0  0
 18 23  1  0  0  0  0
 21 24  1  0  0  0  0
 16 18  1  0  0  0  0
 13 14  1  0  0  0  0
  7 13  1  1  0  0  0
 26 27  1  0  0  0  0
 27 28  2  0  0  0  0
 27 29  1  0  0  0  0
 25 26  1  0  0  0  0
  3 25  1  0  0  0  0
M  END
>  <type>
systematic

$$$$

  Mrv2401 11022420332D          

 29 31  0  0  0  0            999 V2000
    3.5724   -5.3625    0.0000 C   0  0  0  0  0  0  0  0  0  0  0  0
    3.5724   -6.1875    0.0000 C   0  0  0  0  0  0  0  0  0  0  0  0
    4.2868   -6.6000    0.0000 O   0  0  0  0  0  0  0  0  0  0  0  0
    2.8579   -6.6000    0.0000 O   0  0  0  0  0  0  0  0  0  0  0  0
    2.8579   -4.9500    0.0000 C   0  0  0  0  0  0  0  0  0  0  0  0
    2.8579   -4.1250    0.0000 C   0  0  0  0  0  0  0  0  0  0  0  0
    3.5724   -3.7125    0.0000 C   0  0  0  0  0  0  0  0  0  0  0  0
    4.2868   -4.1250    0.0000 C   0  0  0  0  0  0  0  0  0  0  0  0
    4.2868   -4.9500    0.0000 C   0  0  0  0  0  0  0  0  0  0  0  0
    3.5724   -2.8875    0.0000 N   0  0  0  0  0  0  0  0  0  0  0  0
    2.8579   -2.4750    0.0000 C   0  0  0  0  0  0  0  0  0  0  0  0
    2.1434   -2.8875    0.0000 O   0  0  0  0  0  0  0  0  0  0  0  0
    2.8579   -1.6500    0.0000 C   0  0  0  0  0  0  0  0  0  0  0  0
   -0.7145   -1.2375    0.0000 C   0  0  0  0  0  0  0  0  0  0  0  0
    0.0000   -1.6500    0.0000 C   0  0  0  0  0  0  0  0  0  0  0  0
    0.7145   -1.2375    0.0000 C   0  0  0  0  0  0  0  0  0  0  0  0
    0.7145   -0.4125    0.0000 C   0  0  0  0  0  0  0  0  0  0  0  0
    0.0000   -0.0000    0.0000 C   0  0  0  0  0  0  0  0  0  0  0  0
   -0.7145   -0.4125    0.0000 C   0  0  0  0  0  0  0  0  0  0  0  0
    1.4289   -0.0000    0.0000 C   0  0  0  0  0  0  0  0  0  0  0  0
    2.1434   -0.4125    0.0000 C   0  0  0  0  0  0  0  0  0  0  0  0
    2.1434   -1.2375    0.0000 C   0  0  0  0  0  0  0  0  0  0  0  0
    1.4289   -1.6500    0.0000 C   0  0  0  0  0  0  0  0  0  0  0  0
    0.3873    0.7284    0.0000 C   0  0  0  0  0  0  0  0  0  0  0  0
   -0.3873    0.7284    0.0000 C   0  0  0  0  0  0  0  0  0  0  0  0
   -0.3873   -2.3784    0.0000 C   0  0  0  0  0  0  0  0  0  0  0  0
    0.3873   -2.3784    0.0000 C   0  0  0  0  0  0  0  0  0  0  0  0
    3.5724   -1.2375    0.0000 O   0  0  0  0  0  0  0  0  0  0  0  0
    2.1434   -3.7125    0.0000 F   0  0  0  0  0  0  0  0  0  0  0  0
  1  2  1  0  0  0  0
  2  3  1  0  0  0  0
  2  4  2  0  0  0  0
  1  5  2  0  0  0  0
  5  6  1  0  0  0  0
  6  7  2  0  0  0  0
  7  8  1  0  0  0  0
  8  9  2  0  0  0  0
  1  9  1  0  0  0  0
 11 12  2  0  0  0  0
 11 13  1  0  0  0  0
 14 15  1  0  0  0  0
 15 16  1  0  0  0  0
 16 17  2  0  0  0  0
 17 18  1  0  0  0  0
 18 19  1  0  0  0  0
 14 19  1  0  0  0  0
 17 20  1  0  0  0  0
 20 21  2  0  0  0  0
 21 22  1  0  0  0  0
 22 23  2  0  0  0  0
 16 23  1  0  0  0  0
 18 24  1  0  0  0  0
 18 25  1  0  0  0  0
 15 26  1  0  0  0  0
 15 27  1  0  0  0  0
 13 22  1  0  0  0  0
 13 28  1  0  0  0  0
 10 11  1  0  0  0  0
  7 10  1  0  0  0  0
  6 29  1  0  0  0  0
M  END
>  <type>
systematic

$$$$

  Mrv2401 11022420332D          

 29 31  0  0  0  0            999 V2000
    3.5724   -5.3625    0.0000 C   0  0  0  0  0  0  0  0  0  0  0  0
    3.5724   -6.1875    0.0000 C   0  0  0  0  0  0  0  0  0  0  0  0
    4.2868   -6.6000    0.0000 O   0  0  0  0  0  0  0  0  0  0  0  0
    2.8579   -6.6000    0.0000 O   0  0  0  0  0  0  0  0  0  0  0  0
    2.8579   -4.9500    0.0000 C   0  0  0  0  0  0  0  0  0  0  0  0
    2.8579   -4.1250    0.0000 C   0  0  0  0  0  0  0  0  0  0  0  0
    3.5724   -3.7125    0.0000 C   0  0  0  0  0  0  0  0  0  0  0  0
    4.2868   -4.1250    0.0000 C   0  0  0  0  0  0  0  0  0  0  0  0
    4.2868   -4.9500    0.0000 C   0  0  0  0  0  0  0  0  0  0  0  0
    3.5724   -2.8875    0.0000 N   0  0  0  0  0  0  0  0  0  0  0  0
    2.8579   -2.4750    0.0000 C   0  0  0  0  0  0  0  0  0  0  0  0
    2.1434   -2.8875    0.0000 O   0  0  0  0  0  0  0  0  0  0  0  0
    2.8579   -1.6500    0.0000 C   0  0  0  0  0  0  0  0  0  0  0  0
   -0.7145   -1.2375    0.0000 C   0  0  0  0  0  0  0  0  0  0  0  0
    0.0000   -1.6500    0.0000 C   0  0  0  0  0  0  0  0  0  0  0  0
    0.7145   -1.2375    0.0000 C   0  0  0  0  0  0  0  0  0  0  0  0
    0.7145   -0.4125    0.0000 C   0  0  0  0  0  0  0  0  0  0  0  0
    0.0000   -0.0000    0.0000 C   0  0  0  0  0  0  0  0  0  0  0  0
   -0.7145   -0.4125    0.0000 C   0  0  0  0  0  0  0  0  0  0  0  0
    1.4289   -0.0000    0.0000 C   0  0  0  0  0  0  0  0  0  0  0  0
    2.1434   -0.4125    0.0000 C   0  0  0  0  0  0  0  0  0  0  0  0
    2.1434   -1.2375    0.0000 C   0  0  0  0  0  0  0  0  0  0  0  0
    1.4289   -1.6500    0.0000 C   0  0  0  0  0  0  0  0  0  0  0  0
    0.3873    0.7284    0.0000 C   0  0  0  0  0  0  0  0  0  0  0  0
   -0.3873    0.7284    0.0000 C   0  0  0  0  0  0  0  0  0  0  0  0
   -0.3873   -2.3784    0.0000 C   0  0  0  0  0  0  0  0  0  0  0  0
    0.3873   -2.3784    0.0000 C   0  0  0  0  0  0  0  0  0  0  0  0
    3.5724   -1.2375    0.0000 O   0  0  0  0  0  0  0  0  0  0  0  0
    2.1434   -3.7125    0.0000 F   0  0  0  0  0  0  0  0  0  0  0  0
  1  2  1  0  0  0  0
  2  3  1  0  0  0  0
  2  4  2  0  0  0  0
  1  5  2  0  0  0  0
  5  6  1  0  0  0  0
  6  7  2  0  0  0  0
  7  8  1  0  0  0  0
  8  9  2  0  0  0  0
  1  9  1  0  0  0  0
 11 12  2  0  0  0  0
 11 13  1  0  0  0  0
 14 15  1  0  0  0  0
 15 16  1  0  0  0  0
 16 17  2  0  0  0  0
 17 18  1  0  0  0  0
 18 19  1  0  0  0  0
 14 19  1  0  0  0  0
 17 20  1  0  0  0  0
 20 21  2  0  0  0  0
 21 22  1  0  0  0  0
 22 23  2  0  0  0  0
 16 23  1  0  0  0  0
 18 24  1  0  0  0  0
 18 25  1  0  0  0  0
 15 26  1  0  0  0  0
 15 27  1  0  0  0  0
 13 22  1  0  0  0  0
 13 28  1  0  0  0  0
 10 11  1  0  0  0  0
  7 10  1  0  0  0  0
  6 29  1  0  0  0  0
M  END
>  <type>
systematic

$$$$

  Mrv2401 11022420342D          

 29 31  0  0  0  0            999 V2000
    3.5724   -5.3625    0.0000 C   0  0  0  0  0  0  0  0  0  0  0  0
    3.5724   -6.1875    0.0000 C   0  0  0  0  0  0  0  0  0  0  0  0
    4.2868   -6.6000    0.0000 O   0  0  0  0  0  0  0  0  0  0  0  0
    2.8579   -6.6000    0.0000 O   0  0  0  0  0  0  0  0  0  0  0  0
    2.8579   -4.9500    0.0000 C   0  0  0  0  0  0  0  0  0  0  0  0
    2.8579   -4.1250    0.0000 C   0  0  0  0  0  0  0  0  0  0  0  0
    3.5724   -3.7125    0.0000 C   0  0  0  0  0  0  0  0  0  0  0  0
    4.2868   -4.1250    0.0000 C   0  0  0  0  0  0  0  0  0  0  0  0
    4.2868   -4.9500    0.0000 C   0  0  0  0  0  0  0  0  0  0  0  0
    3.5724   -2.8875    0.0000 N   0  0  0  0  0  0  0  0  0  0  0  0
    2.8579   -2.4750    0.0000 C   0  0  0  0  0  0  0  0  0  0  0  0
    2.1434   -2.8875    0.0000 O   0  0  0  0  0  0  0  0  0  0  0  0
    2.8579   -1.6500    0.0000 C   0  0  0  0  0  0  0  0  0  0  0  0
   -0.7145   -1.2375    0.0000 C   0  0  0  0  0  0  0  0  0  0  0  0
    0.0000   -1.6500    0.0000 C   0  0  0  0  0  0  0  0  0  0  0  0
    0.7145   -1.2375    0.0000 C   0  0  0  0  0  0  0  0  0  0  0  0
    0.7145   -0.4125    0.0000 C   0  0  0  0  0  0  0  0  0  0  0  0
    0.0000   -0.0000    0.0000 C   0  0  0  0  0  0  0  0  0  0  0  0
   -0.7145   -0.4125    0.0000 C   0  0  0  0  0  0  0  0  0  0  0  0
    1.4289   -0.0000    0.0000 C   0  0  0  0  0  0  0  0  0  0  0  0
    2.1434   -0.4125    0.0000 C   0  0  0  0  0  0  0  0  0  0  0  0
    2.1434   -1.2375    0.0000 C   0  0  0  0  0  0  0  0  0  0  0  0
    1.4289   -1.6500    0.0000 C   0  0  0  0  0  0  0  0  0  0  0  0
    0.3873    0.7284    0.0000 C   0  0  0  0  0  0  0  0  0  0  0  0
   -0.3873    0.7284    0.0000 C   0  0  0  0  0  0  0  0  0  0  0  0
   -0.3873   -2.3784    0.0000 C   0  0  0  0  0  0  0  0  0  0  0  0
    0.3873   -2.3784    0.0000 C   0  0  0  0  0  0  0  0  0  0  0  0
    3.5724   -1.2375    0.0000 O   0  0  0  0  0  0  0  0  0  0  0  0
    2.1434   -3.7125    0.0000 Cl  0  0  0  0  0  0  0  0  0  0  0  0
  1  2  1  0  0  0  0
  2  3  1  0  0  0  0
  2  4  2  0  0  0  0
  1  5  2  0  0  0  0
  5  6  1  0  0  0  0
  6  7  2  0  0  0  0
  7  8  1  0  0  0  0
  8  9  2  0  0  0  0
  1  9  1  0  0  0  0
 11 12  2  0  0  0  0
 11 13  1  0  0  0  0
 14 15  1  0  0  0  0
 15 16  1  0  0  0  0
 16 17  2  0  0  0  0
 17 18  1  0  0  0  0
 18 19  1  0  0  0  0
 14 19  1  0  0  0  0
 17 20  1  0  0  0  0
 20 21  2  0  0  0  0
 21 22  1  0  0  0  0
 22 23  2  0  0  0  0
 16 23  1  0  0  0  0
 18 24  1  0  0  0  0
 18 25  1  0  0  0  0
 15 26  1  0  0  0  0
 15 27  1  0  0  0  0
 13 22  1  0  0  0  0
 13 28  1  0  0  0  0
 10 11  1  0  0  0  0
  7 10  1  0  0  0  0
  6 29  1  0  0  0  0
M  END
>  <type>
systematic

$$$$
3-Bromo-4-[[2-hydroxy-2-(5,6,7,8-tetrahydro-5,5,8,8-tetramethyl-2-naphthalenyl)acetyl]amino]benzoic acid
  Mrv2401 11022420352D          

 29 31  0  0  0  0            999 V2000
    3.5724   -5.3625    0.0000 C   0  0  0  0  0  0  0  0  0  0  0  0
    3.5724   -6.1875    0.0000 C   0  0  0  0  0  0  0  0  0  0  0  0
    4.2868   -6.6000    0.0000 O   0  0  0  0  0  0  0  0  0  0  0  0
    2.8579   -6.6000    0.0000 O   0  0  0  0  0  0  0  0  0  0  0  0
    2.8579   -4.9500    0.0000 C   0  0  0  0  0  0  0  0  0  0  0  0
    2.8579   -4.1250    0.0000 C   0  0  0  0  0  0  0  0  0  0  0  0
    3.5724   -3.7125    0.0000 C   0  0  0  0  0  0  0  0  0  0  0  0
    4.2868   -4.1250    0.0000 C   0  0  0  0  0  0  0  0  0  0  0  0
    4.2868   -4.9500    0.0000 C   0  0  0  0  0  0  0  0  0  0  0  0
    3.5724   -2.8875    0.0000 N   0  0  0  0  0  0  0  0  0  0  0  0
    2.8579   -2.4750    0.0000 C   0  0  0  0  0  0  0  0  0  0  0  0
    2.1434   -2.8875    0.0000 O   0  0  0  0  0  0  0  0  0  0  0  0
    2.8579   -1.6500    0.0000 C   0  0  0  0  0  0  0  0  0  0  0  0
   -0.7145   -1.2375    0.0000 C   0  0  0  0  0  0  0  0  0  0  0  0
    0.0000   -1.6500    0.0000 C   0  0  0  0  0  0  0  0  0  0  0  0
    0.7145   -1.2375    0.0000 C   0  0  0  0  0  0  0  0  0  0  0  0
    0.7145   -0.4125    0.0000 C   0  0  0  0  0  0  0  0  0  0  0  0
    0.0000   -0.0000    0.0000 C   0  0  0  0  0  0  0  0  0  0  0  0
   -0.7145   -0.4125    0.0000 C   0  0  0  0  0  0  0  0  0  0  0  0
    1.4289   -0.0000    0.0000 C   0  0  0  0  0  0  0  0  0  0  0  0
    2.1434   -0.4125    0.0000 C   0  0  0  0  0  0  0  0  0  0  0  0
    2.1434   -1.2375    0.0000 C   0  0  0  0  0  0  0  0  0  0  0  0
    1.4289   -1.6500    0.0000 C   0  0  0  0  0  0  0  0  0  0  0  0
    0.3873    0.7284    0.0000 C   0  0  0  0  0  0  0  0  0  0  0  0
   -0.3873    0.7284    0.0000 C   0  0  0  0  0  0  0  0  0  0  0  0
   -0.3873   -2.3784    0.0000 C   0  0  0  0  0  0  0  0  0  0  0  0
    0.3873   -2.3784    0.0000 C   0  0  0  0  0  0  0  0  0  0  0  0
    3.5724   -1.2375    0.0000 O   0  0  0  0  0  0  0  0  0  0  0  0
    2.1434   -3.7125    0.0000 Br  0  0  0  0  0  0  0  0  0  0  0  0
  1  2  1  0  0  0  0
  2  3  1  0  0  0  0
  2  4  2  0  0  0  0
  1  5  2  0  0  0  0
  5  6  1  0  0  0  0
  6  7  2  0  0  0  0
  7  8  1  0  0  0  0
  8  9  2  0  0  0  0
  1  9  1  0  0  0  0
 11 12  2  0  0  0  0
 11 13  1  0  0  0  0
 14 15  1  0  0  0  0
 15 16  1  0  0  0  0
 16 17  2  0  0  0  0
 17 18  1  0  0  0  0
 18 19  1  0  0  0  0
 14 19  1  0  0  0  0
 17 20  1  0  0  0  0
 20 21  2  0  0  0  0
 21 22  1  0  0  0  0
 22 23  2  0  0  0  0
 16 23  1  0  0  0  0
 18 24  1  0  0  0  0
 18 25  1  0  0  0  0
 15 26  1  0  0  0  0
 15 27  1  0  0  0  0
 13 22  1  0  0  0  0
 13 28  1  0  0  0  0
 10 11  1  0  0  0  0
  7 10  1  0  0  0  0
  6 29  1  0  0  0  0
M  END
>  <type>
systematic

$$$$
4-[[2-Hydroxy-2-(5,6,7,8-tetrahydro-5,5,8,8-tetramethyl-2-naphthalenyl)acetyl]amino]-3-methoxybenzoic acid
  Mrv2401 11022420362D          

 30 32  0  0  0  0            999 V2000
    3.5724   -5.3625    0.0000 C   0  0  0  0  0  0  0  0  0  0  0  0
    3.5724   -6.1875    0.0000 C   0  0  0  0  0  0  0  0  0  0  0  0
    4.2868   -6.6000    0.0000 O   0  0  0  0  0  0  0  0  0  0  0  0
    2.8579   -6.6000    0.0000 O   0  0  0  0  0  0  0  0  0  0  0  0
    2.8579   -4.9500    0.0000 C   0  0  0  0  0  0  0  0  0  0  0  0
    2.8579   -4.1250    0.0000 C   0  0  0  0  0  0  0  0  0  0  0  0
    3.5724   -3.7125    0.0000 C   0  0  0  0  0  0  0  0  0  0  0  0
    4.2868   -4.1250    0.0000 C   0  0  0  0  0  0  0  0  0  0  0  0
    4.2868   -4.9500    0.0000 C   0  0  0  0  0  0  0  0  0  0  0  0
    2.1434   -3.7125    0.0000 O   0  0  0  0  0  0  0  0  0  0  0  0
    1.4289   -4.1250    0.0000 C   0  0  0  0  0  0  0  0  0  0  0  0
    3.5724   -2.8875    0.0000 N   0  0  0  0  0  0  0  0  0  0  0  0
    2.8579   -2.4750    0.0000 C   0  0  0  0  0  0  0  0  0  0  0  0
    2.1434   -2.8875    0.0000 O   0  0  0  0  0  0  0  0  0  0  0  0
    2.8579   -1.6500    0.0000 C   0  0  0  0  0  0  0  0  0  0  0  0
   -0.7145   -1.2375    0.0000 C   0  0  0  0  0  0  0  0  0  0  0  0
    0.0000   -1.6500    0.0000 C   0  0  0  0  0  0  0  0  0  0  0  0
    0.7145   -1.2375    0.0000 C   0  0  0  0  0  0  0  0  0  0  0  0
    0.7145   -0.4125    0.0000 C   0  0  0  0  0  0  0  0  0  0  0  0
    0.0000   -0.0000    0.0000 C   0  0  0  0  0  0  0  0  0  0  0  0
   -0.7145   -0.4125    0.0000 C   0  0  0  0  0  0  0  0  0  0  0  0
    1.4289   -0.0000    0.0000 C   0  0  0  0  0  0  0  0  0  0  0  0
    2.1434   -0.4125    0.0000 C   0  0  0  0  0  0  0  0  0  0  0  0
    2.1434   -1.2375    0.0000 C   0  0  0  0  0  0  0  0  0  0  0  0
    1.4289   -1.6500    0.0000 C   0  0  0  0  0  0  0  0  0  0  0  0
    0.3873    0.7284    0.0000 C   0  0  0  0  0  0  0  0  0  0  0  0
   -0.3873    0.7284    0.0000 C   0  0  0  0  0  0  0  0  0  0  0  0
   -0.3873   -2.3784    0.0000 C   0  0  0  0  0  0  0  0  0  0  0  0
    0.3873   -2.3784    0.0000 C   0  0  0  0  0  0  0  0  0  0  0  0
    3.5724   -1.2375    0.0000 O   0  0  0  0  0  0  0  0  0  0  0  0
  1  2  1  0  0  0  0
  2  3  1  0  0  0  0
  2  4  2  0  0  0  0
  1  5  2  0  0  0  0
  5  6  1  0  0  0  0
  6  7  2  0  0  0  0
  7  8  1  0  0  0  0
  8  9  2  0  0  0  0
  1  9  1  0  0  0  0
 10 11  1  0  0  0  0
  6 10  1  0  0  0  0
 13 14  2  0  0  0  0
 13 15  1  0  0  0  0
 16 17  1  0  0  0  0
 17 18  1  0  0  0  0
 18 19  2  0  0  0  0
 19 20  1  0  0  0  0
 20 21  1  0  0  0  0
 16 21  1  0  0  0  0
 19 22  1  0  0  0  0
 22 23  2  0  0  0  0
 23 24  1  0  0  0  0
 24 25  2  0  0  0  0
 18 25  1  0  0  0  0
 20 26  1  0  0  0  0
 20 27  1  0  0  0  0
 17 28  1  0  0  0  0
 17 29  1  0  0  0  0
 15 24  1  0  0  0  0
 15 30  1  0  0  0  0
 12 13  1  0  0  0  0
  7 12  1  0  0  0  0
M  END
>  <type>
systematic

$$$$
2-Benzothiazolecarboxylic acid, 2-(5-carboxy-1,2-dihydro-2-oxo-3H-indol-3-ylidene)hydrazide
  Mrv2401 11022420372D          

 26 29  0  0  0  0            999 V2000
   -2.1411    2.5492    0.0000 C   0  0  0  0  0  0  0  0  0  0  0  0
   -1.3207    2.6355    0.0000 S   0  0  0  0  0  0  0  0  0  0  0  0
   -0.9851    1.8818    0.0000 C   0  0  0  0  0  0  0  0  0  0  0  0
   -1.5982    1.3298    0.0000 N   0  0  0  0  0  0  0  0  0  0  0  0
   -2.3127    1.7423    0.0000 C   0  0  0  0  0  0  0  0  0  0  0  0
   -3.0973    1.4873    0.0000 C   0  0  0  0  0  0  0  0  0  0  0  0
   -3.7104    2.0394    0.0000 C   0  0  0  0  0  0  0  0  0  0  0  0
   -3.5389    2.8463    0.0000 C   0  0  0  0  0  0  0  0  0  0  0  0
   -2.7542    3.1013    0.0000 C   0  0  0  0  0  0  0  0  0  0  0  0
   -0.1781    1.7103    0.0000 C   0  0  0  0  0  0  0  0  0  0  0  0
    0.3739    2.3234    0.0000 O   0  0  0  0  0  0  0  0  0  0  0  0
    0.8838    0.7541    0.0000 N   0  0  0  0  0  0  0  0  0  0  0  0
    0.0768    0.9256    0.0000 N   0  0  0  0  0  0  0  0  0  0  0  0
    0.6538   -0.6979    0.0000 C   0  0  0  0  0  0  0  0  0  0  0  0
    1.1387   -0.0305    0.0000 C   0  0  0  0  0  0  0  0  0  0  0  0
    1.9233   -0.2854    0.0000 C   0  0  0  0  0  0  0  0  0  0  0  0
    2.6378    0.1271    0.0000 C   0  0  0  0  0  0  0  0  0  0  0  0
    3.3523   -0.2854    0.0000 C   0  0  0  0  0  0  0  0  0  0  0  0
    3.3523   -1.1104    0.0000 C   0  0  0  0  0  0  0  0  0  0  0  0
    2.6378   -1.5229    0.0000 C   0  0  0  0  0  0  0  0  0  0  0  0
    1.9233   -1.1104    0.0000 C   0  0  0  0  0  0  0  0  0  0  0  0
    1.1387   -1.3654    0.0000 N   0  0  0  0  0  0  0  0  0  0  0  0
   -0.1712   -0.6979    0.0000 O   0  0  0  0  0  0  0  0  0  0  0  0
    4.0668    0.1271    0.0000 C   0  0  0  0  0  0  0  0  0  0  0  0
    4.0668    0.9521    0.0000 O   0  0  0  0  0  0  0  0  0  0  0  0
    4.7812   -0.2854    0.0000 O   0  0  0  0  0  0  0  0  0  0  0  0
  1  2  1  0  0  0  0
  2  3  1  0  0  0  0
  3  4  2  0  0  0  0
  4  5  1  0  0  0  0
  1  5  1  0  0  0  0
  5  6  2  0  0  0  0
  6  7  1  0  0  0  0
  7  8  2  0  0  0  0
  8  9  1  0  0  0  0
  1  9  2  0  0  0  0
 10 11  2  0  0  0  0
  3 10  1  0  0  0  0
 12 13  1  4  0  0  0
 14 15  1  0  0  0  0
 15 16  1  0  0  0  0
 16 17  2  0  0  0  0
 17 18  1  0  0  0  0
 18 19  2  0  0  0  0
 19 20  1  0  0  0  0
 20 21  2  0  0  0  0
 16 21  1  0  0  0  0
 21 22  1  0  0  0  0
 14 22  1  0  0  0  0
 14 23  2  0  0  0  0
 24 25  1  0  0  0  0
 24 26  2  0  0  0  0
 18 24  1  0  0  0  0
 12 15  2  0  0  0  0
 10 13  1  0  0  0  0
M  END
>  <type>
systematic

$$$$

  Mrv2401 11022420422D          

  0  0  0     0  0            999 V3000
M  V30 BEGIN CTAB
M  V30 COUNTS 23 25 0 0 1
M  V30 BEGIN ATOM
M  V30 1 N 3.1555 -0.2818 0 0
M  V30 2 C 4.4892 0.4882 0 0
M  V30 3 C 5.8229 -0.2818 0 0
M  V30 4 C 5.8229 -1.8218 0 0
M  V30 5 S 4.4892 -2.5918 0 0
M  V30 6 C 3.1555 -1.8218 0 0 CFG=2
M  V30 7 C 1.6155 -1.8218 0 0 CFG=1
M  V30 8 C 1.6155 -0.2818 0 0
M  V30 9 C 4.4892 2.0282 0 0
M  V30 10 O 5.8229 2.7982 0 0
M  V30 11 O 3.1555 2.7982 0 0
M  V30 12 O 0.5266 0.8071 0 0
M  V30 13 N 0.5266 -2.9108 0 0
M  V30 14 C -0.961 -2.5122 0 0
M  V30 15 O -1.3595 -1.0247 0 0
M  V30 16 C -2.0499 -3.6011 0 0
M  V30 17 C -3.5374 -3.2026 0 0
M  V30 18 O -1.6513 -5.0887 0 0
M  V30 19 N -4.0893 -1.7649 0 0
M  V30 20 C -5.6271 -1.8455 0 0
M  V30 21 S -6.0257 -3.333 0 0
M  V30 22 C -4.7342 -4.1717 0 0
M  V30 23 N -6.5963 -0.6487 0 0
M  V30 END ATOM
M  V30 BEGIN BOND
M  V30 1 1 1 2
M  V30 2 2 2 3
M  V30 3 1 3 4
M  V30 4 1 4 5
M  V30 5 1 6 5
M  V30 6 1 6 1 CFG=3
M  V30 7 1 6 7
M  V30 8 1 7 8
M  V30 9 1 1 8
M  V30 10 1 9 10
M  V30 11 2 9 11
M  V30 12 1 2 9
M  V30 13 2 8 12
M  V30 14 2 14 15
M  V30 15 1 14 16
M  V30 16 1 16 17
M  V30 17 2 16 18
M  V30 18 1 13 14
M  V30 19 1 7 13 CFG=3
M  V30 20 2 19 20
M  V30 21 1 20 21
M  V30 22 1 21 22
M  V30 23 1 17 19
M  V30 24 2 17 22
M  V30 25 1 20 23
M  V30 END BOND
M  V30 BEGIN COLLECTION
M  V30 MDLV30/STEREL1 ATOMS=(1 7)
M  V30 END COLLECTION
M  V30 END CTAB
M  END
>  <type>
systematic

$$$$
5-Thia-1-azabicyclo[4.2.0]oct-2-ene-2-carboxylic acid, 7-[(hydroxyphenylacetyl)amino]-8-oxo-3-(trifluoromethyl)-, [6 R-[6α,7β(R*)]]-
  Mrv2401 11022420432D          

  0  0  0     0  0            999 V3000
M  V30 BEGIN CTAB
M  V30 COUNTS 27 29 0 0 1
M  V30 BEGIN ATOM
M  V30 1 N 3.1555 -0.2818 0 0
M  V30 2 C 4.4892 0.4882 0 0
M  V30 3 C 5.8229 -0.2818 0 0
M  V30 4 C 5.8229 -1.8218 0 0
M  V30 5 S 4.4892 -2.5918 0 0
M  V30 6 C 3.1555 -1.8218 0 0 CFG=2
M  V30 7 C 1.6155 -1.8218 0 0 CFG=1
M  V30 8 C 1.6155 -0.2818 0 0
M  V30 9 C 4.4892 2.0282 0 0
M  V30 10 O 5.8229 2.7982 0 0
M  V30 11 O 3.1555 2.7982 0 0
M  V30 12 C 7.1566 0.4882 0 0
M  V30 13 F 8.4902 1.2582 0 0
M  V30 14 F 6.3866 1.8218 0 0
M  V30 15 F 7.9266 -0.8455 0 0
M  V30 16 O 0.5266 0.8071 0 0
M  V30 17 N 0.5266 -2.9108 0 0
M  V30 18 C -0.961 -2.5122 0 0
M  V30 19 O -1.3595 -1.0247 0 0
M  V30 20 C -2.0499 -3.6011 0 0
M  V30 21 C -3.5374 -3.2026 0 0
M  V30 22 C -4.6264 -4.2915 0 0
M  V30 23 C -6.1139 -3.8929 0 0
M  V30 24 C -6.5125 -2.4054 0 0
M  V30 25 C -5.4235 -1.3165 0 0
M  V30 26 C -3.936 -1.715 0 0
M  V30 27 O -1.6513 -5.0887 0 0
M  V30 END ATOM
M  V30 BEGIN BOND
M  V30 1 1 1 2
M  V30 2 2 2 3
M  V30 3 1 3 4
M  V30 4 1 4 5
M  V30 5 1 6 5
M  V30 6 1 6 1 CFG=3
M  V30 7 1 6 7
M  V30 8 1 7 8
M  V30 9 1 1 8
M  V30 10 1 9 10
M  V30 11 2 9 11
M  V30 12 1 2 9
M  V30 13 1 12 13
M  V30 14 1 12 14
M  V30 15 1 12 15
M  V30 16 1 3 12
M  V30 17 2 8 16
M  V30 18 2 18 19
M  V30 19 1 18 20
M  V30 20 2 21 22
M  V30 21 1 22 23
M  V30 22 2 23 24
M  V30 23 1 24 25
M  V30 24 2 25 26
M  V30 25 1 21 26
M  V30 26 1 20 21
M  V30 27 1 20 27
M  V30 28 1 17 18
M  V30 29 1 7 17 CFG=3
M  V30 END BOND
M  V30 BEGIN COLLECTION
M  V30 MDLV30/STEREL1 ATOMS=(1 7)
M  V30 END COLLECTION
M  V30 END CTAB
M  END
>  <type>
systematic

$$$$
5-Thia-1-azabicyclo[4.2.0]oct-2-ene-2-carboxylic acid, 7-[(hydroxyphenylacetyl)amino]-8-oxo-3-(trifluoromethyl)-, [6 S-[6α,7β(S*)]]-
  Mrv2401 11022420432D          

  0  0  0     0  0            999 V3000
M  V30 BEGIN CTAB
M  V30 COUNTS 27 29 0 0 1
M  V30 BEGIN ATOM
M  V30 1 N 3.1555 -0.2818 0 0
M  V30 2 C 4.4892 0.4882 0 0
M  V30 3 C 5.8229 -0.2818 0 0
M  V30 4 C 5.8229 -1.8218 0 0
M  V30 5 S 4.4892 -2.5918 0 0
M  V30 6 C 3.1555 -1.8218 0 0 CFG=1
M  V30 7 C 1.6155 -1.8218 0 0 CFG=2
M  V30 8 C 1.6155 -0.2818 0 0
M  V30 9 C 4.4892 2.0282 0 0
M  V30 10 O 5.8229 2.7982 0 0
M  V30 11 O 3.1555 2.7982 0 0
M  V30 12 C 7.1566 0.4882 0 0
M  V30 13 F 8.4902 1.2582 0 0
M  V30 14 F 6.3866 1.8218 0 0
M  V30 15 F 7.9266 -0.8455 0 0
M  V30 16 O 0.5266 0.8071 0 0
M  V30 17 N 0.5266 -2.9108 0 0
M  V30 18 C -0.961 -2.5122 0 0
M  V30 19 O -1.3595 -1.0247 0 0
M  V30 20 C -2.0499 -3.6011 0 0
M  V30 21 C -3.5374 -3.2026 0 0
M  V30 22 C -4.6264 -4.2915 0 0
M  V30 23 C -6.1139 -3.8929 0 0
M  V30 24 C -6.5125 -2.4054 0 0
M  V30 25 C -5.4235 -1.3165 0 0
M  V30 26 C -3.936 -1.715 0 0
M  V30 27 O -1.6513 -5.0887 0 0
M  V30 END ATOM
M  V30 BEGIN BOND
M  V30 1 1 1 2
M  V30 2 2 2 3
M  V30 3 1 3 4
M  V30 4 1 4 5
M  V30 5 1 6 5
M  V30 6 1 6 1 CFG=1
M  V30 7 1 6 7
M  V30 8 1 7 8
M  V30 9 1 1 8
M  V30 10 1 9 10
M  V30 11 2 9 11
M  V30 12 1 2 9
M  V30 13 1 12 13
M  V30 14 1 12 14
M  V30 15 1 12 15
M  V30 16 1 3 12
M  V30 17 2 8 16
M  V30 18 2 18 19
M  V30 19 1 18 20
M  V30 20 2 21 22
M  V30 21 1 22 23
M  V30 22 2 23 24
M  V30 23 1 24 25
M  V30 24 2 25 26
M  V30 25 1 21 26
M  V30 26 1 20 21
M  V30 27 1 20 27
M  V30 28 1 17 18
M  V30 29 1 7 17 CFG=1
M  V30 END BOND
M  V30 BEGIN COLLECTION
M  V30 MDLV30/STEREL1 ATOMS=(1 7)
M  V30 END COLLECTION
M  V30 END CTAB
M  END
>  <type>
systematic

$$$$
3-Ethyl 4-[2-[(2-carboxyphenyl)imino]-2-(hydroxyamino)acetyl]-5-methyl-1-(4-methylphenyl)-1H-pyrazole-3-carboxylate
  Mrv2401 11022420442D          

 33 35  0  0  0  0            999 V2000
    3.4656   -1.2991    0.0000 N   0  0  0  0  0  0  0  0  0  0  0  0
    2.7982   -1.7840    0.0000 N   0  0  0  0  0  0  0  0  0  0  0  0
    3.0531   -2.5687    0.0000 C   0  0  0  0  0  0  0  0  0  0  0  0
    3.8781   -2.5687    0.0000 C   0  0  0  0  0  0  0  0  0  0  0  0
    4.1331   -1.7840    0.0000 C   0  0  0  0  0  0  0  0  0  0  0  0
    2.5682   -3.2361    0.0000 C   0  0  0  0  0  0  0  0  0  0  0  0
    2.9038   -3.9898    0.0000 O   0  0  0  0  0  0  0  0  0  0  0  0
    1.7477   -3.1499    0.0000 O   0  0  0  0  0  0  0  0  0  0  0  0
    3.4656   -0.4741    0.0000 C   0  0  0  0  0  0  0  0  0  0  0  0
    2.7512   -0.0616    0.0000 C   0  0  0  0  0  0  0  0  0  0  0  0
    2.7512    0.7634    0.0000 C   0  0  0  0  0  0  0  0  0  0  0  0
    3.4656    1.1759    0.0000 C   0  0  0  0  0  0  0  0  0  0  0  0
    4.1801    0.7634    0.0000 C   0  0  0  0  0  0  0  0  0  0  0  0
    4.1801   -0.0616    0.0000 C   0  0  0  0  0  0  0  0  0  0  0  0
    3.4656    2.0009    0.0000 C   0  0  0  0  0  0  0  0  0  0  0  0
    4.9177   -1.5291    0.0000 C   0  0  0  0  0  0  0  0  0  0  0  0
    4.3631   -3.2361    0.0000 C   0  0  0  0  0  0  0  0  0  0  0  0
    4.0275   -3.9898    0.0000 O   0  0  0  0  0  0  0  0  0  0  0  0
    5.1836   -3.1499    0.0000 C   0  0  0  0  0  0  0  0  0  0  0  0
    5.5191   -2.3962    0.0000 N   0  0  0  0  0  0  0  0  0  0  0  0
    6.3396   -2.3099    0.0000 O   0  0  0  0  0  0  0  0  0  0  0  0
    5.6685   -3.8173    0.0000 N   0  0  0  0  0  0  0  0  0  0  0  0
    5.3329   -4.5710    0.0000 C   0  0  0  0  0  0  0  0  0  0  0  0
    5.8178   -5.2384    0.0000 C   0  0  0  0  0  0  0  0  0  0  0  0
    5.4823   -5.9921    0.0000 C   0  0  0  0  0  0  0  0  0  0  0  0
    4.6618   -6.0783    0.0000 C   0  0  0  0  0  0  0  0  0  0  0  0
    4.1769   -5.4109    0.0000 C   0  0  0  0  0  0  0  0  0  0  0  0
    4.5124   -4.6572    0.0000 C   0  0  0  0  0  0  0  0  0  0  0  0
    6.6383   -5.1522    0.0000 C   0  0  0  0  0  0  0  0  0  0  0  0
    7.1232   -5.8196    0.0000 O   0  0  0  0  0  0  0  0  0  0  0  0
    6.9739   -4.3985    0.0000 O   0  0  0  0  0  0  0  0  0  0  0  0
    1.2628   -3.8173    0.0000 C   0  0  0  0  0  0  0  0  0  0  0  0
    0.4423   -3.7311    0.0000 C   0  0  0  0  0  0  0  0  0  0  0  0
  1  2  1  0  0  0  0
  2  3  2  0  0  0  0
  3  4  1  0  0  0  0
  4  5  2  0  0  0  0
  1  5  1  0  0  0  0
  6  7  2  0  0  0  0
  6  8  1  0  0  0  0
  3  6  1  0  0  0  0
  9 10  2  0  0  0  0
 10 11  1  0  0  0  0
 11 12  2  0  0  0  0
 12 13  1  0  0  0  0
 13 14  2  0  0  0  0
  9 14  1  0  0  0  0
 12 15  1  0  0  0  0
  1  9  1  0  0  0  0
  5 16  1  0  0  0  0
 17 18  2  0  0  0  0
 17 19  1  0  0  0  0
 20 21  1  0  0  0  0
 19 20  1  0  0  0  0
 23 24  2  0  0  0  0
 24 25  1  0  0  0  0
 25 26  2  0  0  0  0
 26 27  1  0  0  0  0
 27 28  2  0  0  0  0
 23 28  1  0  0  0  0
 29 30  1  0  0  0  0
 29 31  2  0  0  0  0
 24 29  1  0  0  0  0
 22 23  1  4  0  0  0
 19 22  2  0  0  0  0
  4 17  1  0  0  0  0
 32 33  1  0  0  0  0
  8 32  1  0  0  0  0
M  END
>  <type>
systematic

$$$$
5-Thia-1-azabicyclo[4.2.0]oct-2-ene-2-carboxylic acid, 7-[[[(aminocarbonyl)oxy]phenylacetyl]amino]-3-(azidomethyl)-8-oxo-, [6 R-[6α,7β(R*)]]-
  Mrv2401 11022420452D          

  0  0  0     0  0            999 V3000
M  V30 BEGIN CTAB
M  V30 COUNTS 30 32 0 0 1
M  V30 BEGIN ATOM
M  V30 1 N 1.7051 0.1267 0 0
M  V30 2 C 0.6162 1.2156 0 0
M  V30 3 C 1.0147 2.7032 0 0
M  V30 4 C 2.5023 3.1017 0 0
M  V30 5 S 3.5912 2.0128 0 0
M  V30 6 C 3.1926 0.5253 0 0 CFG=2
M  V30 7 C 3.5912 -0.9623 0 0 CFG=1
M  V30 8 C 2.1037 -1.3608 0 0
M  V30 9 C -0.8714 0.817 0 0
M  V30 10 O -1.9603 1.906 0 0
M  V30 11 O -1.27 -0.6705 0 0
M  V30 12 O 1.3337 -2.6945 0 0
M  V30 13 C -0.0742 3.7921 0 0
M  V30 14 N 0.3244 5.2796 0 0
M  V30 15 N -0.7646 6.3686 0 0 CHG=1
M  V30 16 N -1.8535 7.4575 0 0 CHG=-1
M  V30 17 N 4.9249 -1.7323 0 0
M  V30 18 C 4.9249 -3.2723 0 0
M  V30 19 O 3.5912 -4.0423 0 0
M  V30 20 C 6.2586 -4.0423 0 0
M  V30 21 C 6.2586 -5.5823 0 0
M  V30 22 C 7.5922 -6.3523 0 0
M  V30 23 C 7.5922 -7.8923 0 0
M  V30 24 C 6.2586 -8.6623 0 0
M  V30 25 C 4.9249 -7.8923 0 0
M  V30 26 C 4.9249 -6.3523 0 0
M  V30 27 O 7.5922 -3.2723 0 0
M  V30 28 C 7.5922 -1.7323 0 0
M  V30 29 O 6.2586 -0.9623 0 0
M  V30 30 N 8.9259 -0.9623 0 0
M  V30 END ATOM
M  V30 BEGIN BOND
M  V30 1 1 1 2
M  V30 2 2 2 3
M  V30 3 1 3 4
M  V30 4 1 4 5
M  V30 5 1 6 5
M  V30 6 1 6 1 CFG=3
M  V30 7 1 6 7
M  V30 8 1 7 8
M  V30 9 1 1 8
M  V30 10 1 9 10
M  V30 11 2 9 11
M  V30 12 1 2 9
M  V30 13 2 8 12
M  V30 14 2 14 15
M  V30 15 2 15 16
M  V30 16 1 13 14
M  V30 17 1 3 13
M  V30 18 2 18 19
M  V30 19 1 18 20
M  V30 20 2 21 22
M  V30 21 1 22 23
M  V30 22 2 23 24
M  V30 23 1 24 25
M  V30 24 2 25 26
M  V30 25 1 21 26
M  V30 26 1 20 21
M  V30 27 2 28 29
M  V30 28 1 28 30
M  V30 29 1 27 28
M  V30 30 1 20 27
M  V30 31 1 17 18
M  V30 32 1 7 17 CFG=3
M  V30 END BOND
M  V30 BEGIN COLLECTION
M  V30 MDLV30/STEREL1 ATOMS=(1 7)
M  V30 END COLLECTION
M  V30 END CTAB
M  END
>  <type>
systematic

$$$$
5-Thia-1-azabicyclo[4.2.0]oct-3-ene-2-carboxylic acid, 3-[[2-(dimethylamino)ethyl]thio]-7-[(hydroxyphenylacetyl)amino]-8-oxo-, [6 R-[6α,7β(R*)]]-
  Mrv2401 11022420472D          

  0  0  0     0  0            999 V3000
M  V30 BEGIN CTAB
M  V30 COUNTS 29 31 0 0 1
M  V30 BEGIN ATOM
M  V30 1 N -6.6684 3.85 0 0
M  V30 2 C -5.3347 4.62 0 0
M  V30 3 C -4.001 3.85 0 0
M  V30 4 C -4.001 2.31 0 0
M  V30 5 S -5.3347 1.54 0 0
M  V30 6 C -6.6684 2.31 0 0 CFG=2
M  V30 7 C -8.2084 2.31 0 0 CFG=1
M  V30 8 C -8.2084 3.85 0 0
M  V30 9 C -5.3347 6.16 0 0
M  V30 10 O -4.001 6.93 0 0
M  V30 11 O -6.6684 6.93 0 0
M  V30 12 O -9.2973 4.9389 0 0
M  V30 13 N -9.2973 1.2211 0 0
M  V30 14 C -10.7849 1.6196 0 0
M  V30 15 O -11.1834 3.1072 0 0
M  V30 16 C -11.8738 0.5307 0 0
M  V30 17 C -13.3613 0.9293 0 0
M  V30 18 C -14.4503 -0.1597 0 0
M  V30 19 C -15.9378 0.2389 0 0
M  V30 20 C -16.3364 1.7264 0 0
M  V30 21 C -15.2474 2.8154 0 0
M  V30 22 C -13.7599 2.4168 0 0
M  V30 23 O -11.4752 -0.9568 0 0
M  V30 24 S -2.6674 4.62 0 0
M  V30 25 C -1.3337 3.85 0 0
M  V30 26 C 0 4.62 0 0
M  V30 27 N 1.3337 3.85 0 0
M  V30 28 C 2.6674 4.62 0 0
M  V30 29 C 1.3337 2.31 0 0
M  V30 END ATOM
M  V30 BEGIN BOND
M  V30 1 1 1 2
M  V30 2 1 2 3
M  V30 3 2 3 4
M  V30 4 1 4 5
M  V30 5 1 6 5
M  V30 6 1 6 1 CFG=3
M  V30 7 1 6 7
M  V30 8 1 7 8
M  V30 9 1 1 8
M  V30 10 1 9 10
M  V30 11 2 9 11
M  V30 12 1 2 9
M  V30 13 2 8 12
M  V30 14 2 14 15
M  V30 15 1 14 16
M  V30 16 2 17 18
M  V30 17 1 18 19
M  V30 18 2 19 20
M  V30 19 1 20 21
M  V30 20 2 21 22
M  V30 21 1 17 22
M  V30 22 1 16 17
M  V30 23 1 16 23
M  V30 24 1 13 14
M  V30 25 1 7 13 CFG=3
M  V30 26 1 25 26
M  V30 27 1 27 28
M  V30 28 1 27 29
M  V30 29 1 26 27
M  V30 30 1 24 25
M  V30 31 1 3 24
M  V30 END BOND
M  V30 BEGIN COLLECTION
M  V30 MDLV30/STEREL1 ATOMS=(1 7)
M  V30 END COLLECTION
M  V30 END CTAB
M  END
>  <type>
systematic

$$$$
5-Thia-1-azabicyclo[4.2.0]oct-2-ene-2-carboxylic acid, 3-(azidomethyl)-7-[[[4-(ethoxycarbonyl)phenyl]hydroxyacetyl]amino]-8-oxo-, [6 R-(6α,7β)]-
  Mrv2401 11022420492D          

 32 34  0  0  1  0            999 V2000
    1.6905   -0.1510    0.0000 N   0  0  0  0  0  0  0  0  0  0  0  0
    2.4049    0.2615    0.0000 C   0  0  0  0  0  0  0  0  0  0  0  0
    3.1194   -0.1510    0.0000 C   0  0  0  0  0  0  0  0  0  0  0  0
    3.1194   -0.9760    0.0000 C   0  0  0  0  0  0  0  0  0  0  0  0
    2.4049   -1.3885    0.0000 S   0  0  0  0  0  0  0  0  0  0  0  0
    1.6905   -0.9760    0.0000 C   0  0  2  0  0  0  0  0  0  0  0  0
    0.8655   -0.9760    0.0000 C   0  0  2  0  0  0  0  0  0  0  0  0
    0.8655   -0.1510    0.0000 C   0  0  0  0  0  0  0  0  0  0  0  0
    2.4049    1.0865    0.0000 C   0  0  0  0  0  0  0  0  0  0  0  0
    3.1194    1.4990    0.0000 O   0  0  0  0  0  0  0  0  0  0  0  0
    1.6905    1.4990    0.0000 O   0  0  0  0  0  0  0  0  0  0  0  0
    0.2821    0.4324    0.0000 O   0  0  0  0  0  0  0  0  0  0  0  0
    0.2821   -1.5593    0.0000 N   0  0  0  0  0  0  0  0  0  0  0  0
   -0.5148   -1.3458    0.0000 C   0  0  0  0  0  0  0  0  0  0  0  0
   -0.7283   -0.5489    0.0000 O   0  0  0  0  0  0  0  0  0  0  0  0
   -1.0982   -1.9292    0.0000 C   0  0  0  0  0  0  0  0  0  0  0  0
   -0.8846   -2.7261    0.0000 O   0  0  0  0  0  0  0  0  0  0  0  0
   -1.8950   -1.7157    0.0000 C   0  0  0  0  0  0  0  0  0  0  0  0
   -2.4784   -2.2990    0.0000 C   0  0  0  0  0  0  0  0  0  0  0  0
   -3.2753   -2.0855    0.0000 C   0  0  0  0  0  0  0  0  0  0  0  0
   -3.4888   -1.2886    0.0000 C   0  0  0  0  0  0  0  0  0  0  0  0
   -2.9055   -0.7052    0.0000 C   0  0  0  0  0  0  0  0  0  0  0  0
   -2.1086   -0.9188    0.0000 C   0  0  0  0  0  0  0  0  0  0  0  0
   -4.2857   -1.0751    0.0000 C   0  0  0  0  0  0  0  0  0  0  0  0
   -4.4992   -0.2782    0.0000 O   0  0  0  0  0  0  0  0  0  0  0  0
   -4.8691   -1.6584    0.0000 O   0  0  0  0  0  0  0  0  0  0  0  0
   -4.6556   -2.4553    0.0000 C   0  0  0  0  0  0  0  0  0  0  0  0
   -5.2389   -3.0387    0.0000 C   0  0  0  0  0  0  0  0  0  0  0  0
    3.8339    0.2615    0.0000 C   0  0  0  0  0  0  0  0  0  0  0  0
    4.5483   -0.1510    0.0000 N   0  0  0  0  0  0  0  0  0  0  0  0
    5.2628    0.2615    0.0000 N   0  3  0  0  0  0  0  0  0  0  0  0
    5.9773    0.6740    0.0000 N   0  5  0  0  0  0  0  0  0  0  0  0
  1  2  1  0  0  0  0
  2  3  2  0  0  0  0
  3  4  1  0  0  0  0
  4  5  1  0  0  0  0
  6  5  1  0  0  0  0
  6  1  1  6  0  0  0
  6  7  1  0  0  0  0
  7  8  1  0  0  0  0
  1  8  1  0  0  0  0
  9 10  1  0  0  0  0
  9 11  2  0  0  0  0
  2  9  1  0  0  0  0
  8 12  2  0  0  0  0
 14 15  2  0  0  0  0
 14 16  1  0  0  0  0
 16 17  1  0  0  0  0
 18 19  2  0  0  0  0
 19 20  1  0  0  0  0
 20 21  2  0  0  0  0
 21 22  1  0  0  0  0
 22 23  2  0  0  0  0
 18 23  1  0  0  0  0
 24 25  2  0  0  0  0
 27 28  1  0  0  0  0
 26 27  1  0  0  0  0
 24 26  1  0  0  0  0
 21 24  1  0  0  0  0
 16 18  1  0  0  0  0
 13 14  1  0  0  0  0
  7 13  1  1  0  0  0
 30 31  2  0  0  0  0
 31 32  2  0  0  0  0
 29 30  1  0  0  0  0
  3 29  1  0  0  0  0
M  CHG  2  31   1  32  -1
M  END
>  <type>
systematic

$$$$
2-[[(1R)-1-[[(4S)-4-(4-Chlorophenyl)-4-hydroxy-3,3-dimethyl-1-piperidinyl]carbonyl]-2-methylpropyl]amino]-5-thiazolecarboxylic acid
  Mrv2401 11022420492D          

 31 33  0  0  1  0            999 V2000
   -2.5177   -4.0164    0.0000 S   0  0  0  0  0  0  0  0  0  0  0  0
   -2.7726   -4.8011    0.0000 C   0  0  0  0  0  0  0  0  0  0  0  0
   -3.5976   -4.8011    0.0000 N   0  0  0  0  0  0  0  0  0  0  0  0
   -3.8526   -4.0164    0.0000 C   0  0  0  0  0  0  0  0  0  0  0  0
   -3.1851   -3.5315    0.0000 C   0  0  0  0  0  0  0  0  0  0  0  0
   -3.1851   -2.7065    0.0000 C   0  0  0  0  0  0  0  0  0  0  0  0
   -3.8996   -2.2940    0.0000 O   0  0  0  0  0  0  0  0  0  0  0  0
   -2.4707   -2.2940    0.0000 O   0  0  0  0  0  0  0  0  0  0  0  0
   -2.2877   -5.4685    0.0000 N   0  0  0  0  0  0  0  0  0  0  0  0
   -1.4672   -5.3823    0.0000 C   0  0  2  0  0  0  0  0  0  0  0  0
   -1.1317   -4.6286    0.0000 C   0  0  0  0  0  0  0  0  0  0  0  0
   -1.6166   -3.9611    0.0000 C   0  0  0  0  0  0  0  0  0  0  0  0
   -0.3112   -4.5424    0.0000 C   0  0  0  0  0  0  0  0  0  0  0  0
   -0.9823   -6.0497    0.0000 C   0  0  0  0  0  0  0  0  0  0  0  0
   -1.3179   -6.8034    0.0000 O   0  0  0  0  0  0  0  0  0  0  0  0
    1.4791   -5.7910    0.0000 C   0  0  2  0  0  0  0  0  0  0  0  0
    1.1436   -6.5447    0.0000 C   0  0  0  0  0  0  0  0  0  0  0  0
    0.3231   -6.6309    0.0000 C   0  0  0  0  0  0  0  0  0  0  0  0
   -0.1618   -5.9635    0.0000 N   0  0  0  0  0  0  0  0  0  0  0  0
    0.1737   -5.2098    0.0000 C   0  0  0  0  0  0  0  0  0  0  0  0
    0.9942   -5.1236    0.0000 C   0  0  0  0  0  0  0  0  0  0  0  0
    0.9367   -4.3006    0.0000 C   0  0  0  0  0  0  0  0  0  0  0  0
    1.6443   -4.6156    0.0000 C   0  0  0  0  0  0  0  0  0  0  0  0
    2.2441   -6.1000    0.0000 O   0  0  0  0  0  0  0  0  0  0  0  0
    2.1631   -5.3297    0.0000 C   0  0  0  0  0  0  0  0  0  0  0  0
    2.1055   -4.5067    0.0000 C   0  0  0  0  0  0  0  0  0  0  0  0
    2.7895   -4.0453    0.0000 C   0  0  0  0  0  0  0  0  0  0  0  0
    3.5310   -4.4070    0.0000 C   0  0  0  0  0  0  0  0  0  0  0  0
    3.5885   -5.2300    0.0000 C   0  0  0  0  0  0  0  0  0  0  0  0
    2.9046   -5.6913    0.0000 C   0  0  0  0  0  0  0  0  0  0  0  0
    4.2150   -3.9457    0.0000 Cl  0  0  0  0  0  0  0  0  0  0  0  0
  1  2  1  0  0  0  0
  2  3  2  0  0  0  0
  3  4  1  0  0  0  0
  4  5  2  0  0  0  0
  1  5  1  0  0  0  0
  6  7  1  0  0  0  0
  6  8  2  0  0  0  0
  5  6  1  0  0  0  0
 10 11  1  0  0  0  0
 11 12  1  0  0  0  0
 11 13  1  0  0  0  0
 14 15  2  0  0  0  0
 16 17  1  0  0  0  0
 17 18  1  0  0  0  0
 18 19  1  0  0  0  0
 19 20  1  0  0  0  0
 20 21  1  0  0  0  0
 16 21  1  0  0  0  0
 21 22  1  0  0  0  0
 21 23  1  0  0  0  0
 16 24  1  6  0  0  0
 25 26  2  0  0  0  0
 26 27  1  0  0  0  0
 27 28  2  0  0  0  0
 28 29  1  0  0  0  0
 29 30  2  0  0  0  0
 25 30  1  0  0  0  0
 28 31  1  0  0  0  0
 16 25  1  1  0  0  0
 14 19  1  0  0  0  0
 10 14  1  0  0  0  0
 10  9  1  6  0  0  0
  2  9  1  0  0  0  0
M  END
>  <type>
systematic

$$$$
5-Thia-1-azabicyclo[4.2.0]oct-2-ene-2-carboxylic acid, 3-[(acetyloxy)methyl]-8-oxo-7-[(oxo-4-thiazolylacetyl)amino]-, (6R-trans)-
  Mrv2401 11022420502D          

 27 29  0  0  1  0            999 V2000
    1.6905   -0.1510    0.0000 N   0  0  0  0  0  0  0  0  0  0  0  0
    2.4049    0.2615    0.0000 C   0  0  0  0  0  0  0  0  0  0  0  0
    3.1194   -0.1510    0.0000 C   0  0  0  0  0  0  0  0  0  0  0  0
    3.1194   -0.9760    0.0000 C   0  0  0  0  0  0  0  0  0  0  0  0
    2.4049   -1.3885    0.0000 S   0  0  0  0  0  0  0  0  0  0  0  0
    1.6905   -0.9760    0.0000 C   0  0  2  0  0  0  0  0  0  0  0  0
    0.8655   -0.9760    0.0000 C   0  0  0  0  0  0  0  0  0  0  0  0
    0.8655   -0.1510    0.0000 C   0  0  0  0  0  0  0  0  0  0  0  0
    2.4049    1.0865    0.0000 C   0  0  0  0  0  0  0  0  0  0  0  0
    3.1194    1.4990    0.0000 O   0  0  0  0  0  0  0  0  0  0  0  0
    1.6905    1.4990    0.0000 O   0  0  0  0  0  0  0  0  0  0  0  0
    0.2821   -1.5593    0.0000 N   0  0  0  0  0  0  0  0  0  0  0  0
   -0.5148   -1.3458    0.0000 C   0  0  0  0  0  0  0  0  0  0  0  0
   -0.7283   -0.5489    0.0000 O   0  0  0  0  0  0  0  0  0  0  0  0
   -1.0982   -1.9292    0.0000 C   0  0  0  0  0  0  0  0  0  0  0  0
   -3.2281   -1.7855    0.0000 S   0  0  0  0  0  0  0  0  0  0  0  0
   -3.0146   -0.9886    0.0000 C   0  0  0  0  0  0  0  0  0  0  0  0
   -2.1907   -0.9455    0.0000 N   0  0  0  0  0  0  0  0  0  0  0  0
   -1.8950   -1.7157    0.0000 C   0  0  0  0  0  0  0  0  0  0  0  0
   -2.5362   -2.2348    0.0000 C   0  0  0  0  0  0  0  0  0  0  0  0
   -0.8846   -2.7261    0.0000 O   0  0  0  0  0  0  0  0  0  0  0  0
    0.2821    0.4324    0.0000 O   0  0  0  0  0  0  0  0  0  0  0  0
    3.8339    0.2615    0.0000 C   0  0  0  0  0  0  0  0  0  0  0  0
    3.8339    1.0865    0.0000 O   0  0  0  0  0  0  0  0  0  0  0  0
    4.5483    1.4990    0.0000 C   0  0  0  0  0  0  0  0  0  0  0  0
    4.5483    2.3240    0.0000 O   0  0  0  0  0  0  0  0  0  0  0  0
    5.2628    1.0865    0.0000 C   0  0  0  0  0  0  0  0  0  0  0  0
  1  2  1  0  0  0  0
  2  3  2  0  0  0  0
  3  4  1  0  0  0  0
  4  5  1  0  0  0  0
  6  5  1  0  0  0  0
  6  1  1  6  0  0  0
  6  7  1  0  0  0  0
  7  8  1  0  0  0  0
  1  8  1  0  0  0  0
  9 10  1  0  0  0  0
  9 11  2  0  0  0  0
  2  9  1  0  0  0  0
 13 14  2  0  0  0  0
 13 15  1  0  0  0  0
 16 17  1  0  0  0  0
 17 18  2  0  0  0  0
 18 19  1  0  0  0  0
 19 20  2  0  0  0  0
 16 20  1  0  0  0  0
 15 19  1  0  0  0  0
 15 21  2  0  0  0  0
 12 13  1  0  0  0  0
  7 12  1  0  0  0  0
  8 22  2  0  0  0  0
 24 25  1  0  0  0  0
 25 26  2  0  0  0  0
 25 27  1  0  0  0  0
 23 24  1  0  0  0  0
  3 23  1  0  0  0  0
M  END
>  <type>
systematic

$$$$
5-Thia-1-azabicyclo[4.2.0]oct-2-ene-2-carboxylic acid, 7-[[(acetyloxy)phenylacetyl]amino]-3-(azidomethyl)-8-oxo-, [6 R-[6α,7β(R*)]]-
  Mrv2401 11022420512D          

  0  0  0     0  0            999 V3000
M  V30 BEGIN CTAB
M  V30 COUNTS 30 32 0 0 1
M  V30 BEGIN ATOM
M  V30 1 N 1.7051 0.1267 0 0
M  V30 2 C 0.6162 1.2156 0 0
M  V30 3 C 1.0147 2.7032 0 0
M  V30 4 C 2.5023 3.1017 0 0
M  V30 5 S 3.5912 2.0128 0 0
M  V30 6 C 3.1926 0.5253 0 0 CFG=2
M  V30 7 C 3.5912 -0.9623 0 0 CFG=1
M  V30 8 C 2.1037 -1.3608 0 0
M  V30 9 C -0.8714 0.817 0 0
M  V30 10 O -1.9603 1.906 0 0
M  V30 11 O -1.27 -0.6705 0 0
M  V30 12 O 1.3337 -2.6945 0 0
M  V30 13 C -0.0742 3.7921 0 0
M  V30 14 N 0.3244 5.2796 0 0
M  V30 15 N -0.7646 6.3686 0 0 CHG=1
M  V30 16 N -1.8535 7.4575 0 0 CHG=-1
M  V30 17 N 4.9249 -1.7323 0 0
M  V30 18 C 4.9249 -3.2723 0 0
M  V30 19 O 3.5912 -4.0423 0 0
M  V30 20 C 6.2586 -4.0423 0 0
M  V30 21 C 6.2586 -5.5823 0 0
M  V30 22 C 7.5922 -6.3523 0 0
M  V30 23 C 7.5922 -7.8923 0 0
M  V30 24 C 6.2586 -8.6623 0 0
M  V30 25 C 4.9249 -7.8923 0 0
M  V30 26 C 4.9249 -6.3523 0 0
M  V30 27 O 7.5922 -3.2723 0 0
M  V30 28 C 7.5922 -1.7323 0 0
M  V30 29 O 6.2586 -0.9623 0 0
M  V30 30 C 8.9259 -0.9623 0 0
M  V30 END ATOM
M  V30 BEGIN BOND
M  V30 1 1 1 2
M  V30 2 2 2 3
M  V30 3 1 3 4
M  V30 4 1 4 5
M  V30 5 1 6 5
M  V30 6 1 6 1 CFG=3
M  V30 7 1 6 7
M  V30 8 1 7 8
M  V30 9 1 1 8
M  V30 10 1 9 10
M  V30 11 2 9 11
M  V30 12 1 2 9
M  V30 13 2 8 12
M  V30 14 2 14 15
M  V30 15 2 15 16
M  V30 16 1 13 14
M  V30 17 1 3 13
M  V30 18 2 18 19
M  V30 19 1 18 20
M  V30 20 2 21 22
M  V30 21 1 22 23
M  V30 22 2 23 24
M  V30 23 1 24 25
M  V30 24 2 25 26
M  V30 25 1 21 26
M  V30 26 1 20 21
M  V30 27 1 27 28
M  V30 28 2 28 29
M  V30 29 1 28 30
M  V30 30 1 20 27
M  V30 31 1 17 18
M  V30 32 1 7 17 CFG=3
M  V30 END BOND
M  V30 BEGIN COLLECTION
M  V30 MDLV30/STEREL1 ATOMS=(1 7)
M  V30 END COLLECTION
M  V30 END CTAB
M  END
>  <type>
systematic

$$$$
5-Thia-1-azabicyclo[4.2.0]oct-2-ene-2-carboxylic acid, 7-[[(2-amino-4-thiazolyl)hydroxyacetyl]amino]-3-ethenyl-8-oxo-,[6 R-(6α,7β)]-
  Mrv2401 11022420572D          

 25 27  0  0  1  0            999 V2000
    1.6905   -0.1510    0.0000 N   0  0  0  0  0  0  0  0  0  0  0  0
    2.4049    0.2615    0.0000 C   0  0  0  0  0  0  0  0  0  0  0  0
    3.1194   -0.1510    0.0000 C   0  0  0  0  0  0  0  0  0  0  0  0
    3.1194   -0.9760    0.0000 C   0  0  0  0  0  0  0  0  0  0  0  0
    2.4049   -1.3885    0.0000 S   0  0  0  0  0  0  0  0  0  0  0  0
    1.6905   -0.9760    0.0000 C   0  0  2  0  0  0  0  0  0  0  0  0
    0.8655   -0.9760    0.0000 C   0  0  2  0  0  0  0  0  0  0  0  0
    0.8655   -0.1510    0.0000 C   0  0  0  0  0  0  0  0  0  0  0  0
    2.4049    1.0865    0.0000 C   0  0  0  0  0  0  0  0  0  0  0  0
    3.1194    1.4990    0.0000 O   0  0  0  0  0  0  0  0  0  0  0  0
    1.6905    1.4990    0.0000 O   0  0  0  0  0  0  0  0  0  0  0  0
    0.2821    0.4324    0.0000 O   0  0  0  0  0  0  0  0  0  0  0  0
    3.8339    0.2615    0.0000 C   0  0  0  0  0  0  0  0  0  0  0  0
    4.5483   -0.1510    0.0000 C   0  0  0  0  0  0  0  0  0  0  0  0
    0.2821   -1.5593    0.0000 N   0  0  0  0  0  0  0  0  0  0  0  0
    0.4956   -2.3562    0.0000 C   0  0  0  0  0  0  0  0  0  0  0  0
    1.2925   -2.5698    0.0000 O   0  0  0  0  0  0  0  0  0  0  0  0
   -0.0877   -2.9396    0.0000 C   0  0  0  0  0  0  0  0  0  0  0  0
   -0.8846   -2.7261    0.0000 O   0  0  0  0  0  0  0  0  0  0  0  0
    0.8528   -4.8560    0.0000 S   0  0  0  0  0  0  0  0  0  0  0  0
    0.0559   -5.0695    0.0000 C   0  0  0  0  0  0  0  0  0  0  0  0
   -0.3934   -4.3776    0.0000 N   0  0  0  0  0  0  0  0  0  0  0  0
    0.1258   -3.7365    0.0000 C   0  0  0  0  0  0  0  0  0  0  0  0
    0.8960   -4.0321    0.0000 C   0  0  0  0  0  0  0  0  0  0  0  0
   -0.2397   -5.8397    0.0000 N   0  0  0  0  0  0  0  0  0  0  0  0
  1  2  1  0  0  0  0
  2  3  2  0  0  0  0
  3  4  1  0  0  0  0
  4  5  1  0  0  0  0
  6  5  1  0  0  0  0
  6  1  1  6  0  0  0
  6  7  1  0  0  0  0
  7  8  1  0  0  0  0
  1  8  1  0  0  0  0
  9 10  1  0  0  0  0
  9 11  2  0  0  0  0
  2  9  1  0  0  0  0
  8 12  2  0  0  0  0
 13 14  2  0  0  0  0
  3 13  1  0  0  0  0
 16 17  2  0  0  0  0
 16 18  1  0  0  0  0
 18 19  1  0  0  0  0
 20 21  1  0  0  0  0
 21 22  2  0  0  0  0
 22 23  1  0  0  0  0
 23 24  2  0  0  0  0
 20 24  1  0  0  0  0
 21 25  1  0  0  0  0
 18 23  1  0  0  0  0
 15 16  1  0  0  0  0
  7 15  1  1  0  0  0
M  END
>  <type>
systematic

$$$$
5-Thia-1-azabicyclo[4.2.0]oct-2-ene-2-carboxylic acid, 3-[[2-(dimethylamino)ethyl]thio]-7-[(hydroxyphenylacetyl)amino]-8-oxo-, [6 R-[6α,7β(R*)]]-
  Mrv2401 11022420582D          

  0  0  0     0  0            999 V3000
M  V30 BEGIN CTAB
M  V30 COUNTS 29 31 0 0 1
M  V30 BEGIN ATOM
M  V30 1 N -6.6684 3.85 0 0
M  V30 2 C -5.3347 4.62 0 0
M  V30 3 C -4.001 3.85 0 0
M  V30 4 C -4.001 2.31 0 0
M  V30 5 S -5.3347 1.54 0 0
M  V30 6 C -6.6684 2.31 0 0 CFG=2
M  V30 7 C -8.2084 2.31 0 0 CFG=1
M  V30 8 C -8.2084 3.85 0 0
M  V30 9 C -5.3347 6.16 0 0
M  V30 10 O -4.001 6.93 0 0
M  V30 11 O -6.6684 6.93 0 0
M  V30 12 O -9.2973 4.9389 0 0
M  V30 13 N -9.2973 1.2211 0 0
M  V30 14 C -10.7849 1.6196 0 0
M  V30 15 O -11.1834 3.1072 0 0
M  V30 16 C -11.8738 0.5307 0 0
M  V30 17 C -13.3613 0.9293 0 0
M  V30 18 C -14.4503 -0.1597 0 0
M  V30 19 C -15.9378 0.2389 0 0
M  V30 20 C -16.3364 1.7264 0 0
M  V30 21 C -15.2474 2.8154 0 0
M  V30 22 C -13.7599 2.4168 0 0
M  V30 23 O -11.4752 -0.9568 0 0
M  V30 24 S -2.6674 4.62 0 0
M  V30 25 C -1.3337 3.85 0 0
M  V30 26 C 0 4.62 0 0
M  V30 27 N 1.3337 3.85 0 0
M  V30 28 C 2.6674 4.62 0 0
M  V30 29 C 1.3337 2.31 0 0
M  V30 END ATOM
M  V30 BEGIN BOND
M  V30 1 1 1 2
M  V30 2 2 2 3
M  V30 3 1 3 4
M  V30 4 1 4 5
M  V30 5 1 6 5
M  V30 6 1 6 1 CFG=3
M  V30 7 1 6 7
M  V30 8 1 7 8
M  V30 9 1 1 8
M  V30 10 1 9 10
M  V30 11 2 9 11
M  V30 12 1 2 9
M  V30 13 2 8 12
M  V30 14 2 14 15
M  V30 15 1 14 16
M  V30 16 2 17 18
M  V30 17 1 18 19
M  V30 18 2 19 20
M  V30 19 1 20 21
M  V30 20 2 21 22
M  V30 21 1 17 22
M  V30 22 1 16 17
M  V30 23 1 16 23
M  V30 24 1 13 14
M  V30 25 1 7 13 CFG=3
M  V30 26 1 25 26
M  V30 27 1 27 28
M  V30 28 1 27 29
M  V30 29 1 26 27
M  V30 30 1 24 25
M  V30 31 1 3 24
M  V30 END BOND
M  V30 BEGIN COLLECTION
M  V30 MDLV30/STEREL1 ATOMS=(1 7)
M  V30 END COLLECTION
M  V30 END CTAB
M  END
>  <type>
systematic

$$$$
5-Thia-1-azabicyclo[4.2.0]oct-2-ene-2-carboxylic acid, 7-[[(4-amino-5-thiazolyl)oxoacetyl]amino]-3-methyl-8-oxo-, (6R-trans)-
  Mrv2401 11022420592D          

 24 26  0  0  1  0            999 V2000
    1.6905   -0.1510    0.0000 N   0  0  0  0  0  0  0  0  0  0  0  0
    2.4049    0.2615    0.0000 C   0  0  0  0  0  0  0  0  0  0  0  0
    3.1194   -0.1510    0.0000 C   0  0  0  0  0  0  0  0  0  0  0  0
    3.1194   -0.9760    0.0000 C   0  0  0  0  0  0  0  0  0  0  0  0
    2.4049   -1.3885    0.0000 S   0  0  0  0  0  0  0  0  0  0  0  0
    1.6905   -0.9760    0.0000 C   0  0  2  0  0  0  0  0  0  0  0  0
    0.8655   -0.9760    0.0000 C   0  0  0  0  0  0  0  0  0  0  0  0
    0.8655   -0.1510    0.0000 C   0  0  0  0  0  0  0  0  0  0  0  0
    2.4049    1.0865    0.0000 C   0  0  0  0  0  0  0  0  0  0  0  0
    3.1194    1.4990    0.0000 O   0  0  0  0  0  0  0  0  0  0  0  0
    1.6905    1.4990    0.0000 O   0  0  0  0  0  0  0  0  0  0  0  0
    0.2821    0.4324    0.0000 O   0  0  0  0  0  0  0  0  0  0  0  0
    3.8339    0.2615    0.0000 C   0  0  0  0  0  0  0  0  0  0  0  0
    0.2821   -1.5593    0.0000 N   0  0  0  0  0  0  0  0  0  0  0  0
   -0.5148   -1.3458    0.0000 C   0  0  0  0  0  0  0  0  0  0  0  0
   -0.7283   -0.5489    0.0000 O   0  0  0  0  0  0  0  0  0  0  0  0
   -1.0982   -1.9292    0.0000 C   0  0  0  0  0  0  0  0  0  0  0  0
   -0.8846   -2.7261    0.0000 O   0  0  0  0  0  0  0  0  0  0  0  0
   -2.5362   -2.2348    0.0000 S   0  0  0  0  0  0  0  0  0  0  0  0
   -3.2281   -1.7855    0.0000 C   0  0  0  0  0  0  0  0  0  0  0  0
   -3.0146   -0.9886    0.0000 N   0  0  0  0  0  0  0  0  0  0  0  0
   -2.1907   -0.9455    0.0000 C   0  0  0  0  0  0  0  0  0  0  0  0
   -1.8950   -1.7157    0.0000 C   0  0  0  0  0  0  0  0  0  0  0  0
   -1.7414   -0.2536    0.0000 N   0  0  0  0  0  0  0  0  0  0  0  0
  1  2  1  0  0  0  0
  2  3  2  0  0  0  0
  3  4  1  0  0  0  0
  4  5  1  0  0  0  0
  6  5  1  0  0  0  0
  6  1  1  6  0  0  0
  6  7  1  0  0  0  0
  7  8  1  0  0  0  0
  1  8  1  0  0  0  0
  9 10  1  0  0  0  0
  9 11  2  0  0  0  0
  2  9  1  0  0  0  0
  8 12  2  0  0  0  0
  3 13  1  0  0  0  0
 15 16  2  0  0  0  0
 15 17  1  0  0  0  0
 17 18  2  0  0  0  0
 19 20  1  0  0  0  0
 20 21  2  0  0  0  0
 21 22  1  0  0  0  0
 22 23  2  0  0  0  0
 19 23  1  0  0  0  0
 22 24  1  0  0  0  0
 17 23  1  0  0  0  0
 14 15  1  0  0  0  0
  7 14  1  0  0  0  0
M  END
>  <type>
systematic

$$$$

  Mrv2401 11022421032D          

 25 27  0  0  0  0            999 V2000
    1.6905   -0.1510    0.0000 N   0  0  0  0  0  0  0  0  0  0  0  0
    2.4049    0.2615    0.0000 C   0  0  0  0  0  0  0  0  0  0  0  0
    3.1194   -0.1510    0.0000 C   0  0  0  0  0  0  0  0  0  0  0  0
    3.1194   -0.9760    0.0000 C   0  0  0  0  0  0  0  0  0  0  0  0
    2.4049   -1.3885    0.0000 S   0  0  0  0  0  0  0  0  0  0  0  0
    1.6905   -0.9760    0.0000 C   0  0  0  0  0  0  0  0  0  0  0  0
    0.8655   -0.9760    0.0000 C   0  0  0  0  0  0  0  0  0  0  0  0
    0.8655   -0.1510    0.0000 C   0  0  0  0  0  0  0  0  0  0  0  0
    2.4049    1.0865    0.0000 C   0  0  0  0  0  0  0  0  0  0  0  0
    3.1194    1.4990    0.0000 O   0  0  0  0  0  0  0  0  0  0  0  0
    1.6905    1.4990    0.0000 O   0  0  0  0  0  0  0  0  0  0  0  0
    0.2821    0.4324    0.0000 O   0  0  0  0  0  0  0  0  0  0  0  0
    0.2821   -1.5593    0.0000 N   0  0  0  0  0  0  0  0  0  0  0  0
    0.4956   -2.3562    0.0000 C   0  0  0  0  0  0  0  0  0  0  0  0
    1.2925   -2.5698    0.0000 O   0  0  0  0  0  0  0  0  0  0  0  0
   -0.0877   -2.9396    0.0000 C   0  0  0  0  0  0  0  0  0  0  0  0
   -0.8846   -2.7261    0.0000 O   0  0  0  0  0  0  0  0  0  0  0  0
    0.8528   -4.8560    0.0000 S   0  0  0  0  0  0  0  0  0  0  0  0
    0.0559   -5.0695    0.0000 C   0  0  0  0  0  0  0  0  0  0  0  0
   -0.3934   -4.3776    0.0000 N   0  0  0  0  0  0  0  0  0  0  0  0
    0.1258   -3.7365    0.0000 C   0  0  0  0  0  0  0  0  0  0  0  0
    0.8960   -4.0321    0.0000 C   0  0  0  0  0  0  0  0  0  0  0  0
   -0.2397   -5.8397    0.0000 N   0  0  0  0  0  0  0  0  0  0  0  0
   -1.2173   -4.3345    0.0000 O   0  0  0  0  0  0  0  0  0  0  0  0
   -1.5918   -3.5994    0.0000 C   0  0  0  0  0  0  0  0  0  0  0  0
  1  2  1  0  0  0  0
  2  3  2  0  0  0  0
  3  4  1  0  0  0  0
  4  5  1  0  0  0  0
  5  6  1  0  0  0  0
  1  6  1  0  0  0  0
  6  7  1  0  0  0  0
  7  8  1  0  0  0  0
  1  8  1  0  0  0  0
  9 10  1  0  0  0  0
  9 11  2  0  0  0  0
  2  9  1  0  0  0  0
  8 12  2  0  0  0  0
 14 15  2  0  0  0  0
 14 16  1  0  0  0  0
 16 17  2  0  0  0  0
 18 19  1  0  0  0  0
 19 20  1  0  0  0  0
 20 21  1  0  0  0  0
 21 22  2  0  0  0  0
 18 22  1  0  0  0  0
 19 23  2  0  0  0  0
 16 21  1  0  0  0  0
 13 14  1  0  0  0  0
  7 13  1  0  0  0  0
 20 24  1  0  0  0  0
 24 25  1  0  0  0  0
M  END
>  <Ambiguous>
ambiguous

>  <type>
systematic

$$$$
5-Oxa-1-azabicyclo[4.2.0]oct-2-ene-2-carboxylic acid, 7-[[(2-amino-4-thiazolyl)oxoacetyl]amino]-8-oxo-, trans-
  Mrv2401 11022421012D          

 23 25  0  0  0  0            999 V2000
    1.6905   -0.1510    0.0000 N   0  0  0  0  0  0  0  0  0  0  0  0
    2.4049    0.2615    0.0000 C   0  0  0  0  0  0  0  0  0  0  0  0
    3.1194   -0.1510    0.0000 C   0  0  0  0  0  0  0  0  0  0  0  0
    3.1194   -0.9760    0.0000 C   0  0  0  0  0  0  0  0  0  0  0  0
    2.4049   -1.3885    0.0000 O   0  0  0  0  0  0  0  0  0  0  0  0
    1.6905   -0.9760    0.0000 C   0  0  0  0  0  0  0  0  0  0  0  0
    0.8655   -0.9760    0.0000 C   0  0  0  0  0  0  0  0  0  0  0  0
    0.8655   -0.1510    0.0000 C   0  0  0  0  0  0  0  0  0  0  0  0
    2.4049    1.0865    0.0000 C   0  0  0  0  0  0  0  0  0  0  0  0
    3.1194    1.4990    0.0000 O   0  0  0  0  0  0  0  0  0  0  0  0
    1.6905    1.4990    0.0000 O   0  0  0  0  0  0  0  0  0  0  0  0
    0.2821    0.4324    0.0000 O   0  0  0  0  0  0  0  0  0  0  0  0
    0.2821   -1.5593    0.0000 N   0  0  0  0  0  0  0  0  0  0  0  0
    0.4956   -2.3562    0.0000 C   0  0  0  0  0  0  0  0  0  0  0  0
    1.2925   -2.5698    0.0000 O   0  0  0  0  0  0  0  0  0  0  0  0
   -0.0877   -2.9396    0.0000 C   0  0  0  0  0  0  0  0  0  0  0  0
   -0.8846   -2.7261    0.0000 O   0  0  0  0  0  0  0  0  0  0  0  0
    0.8528   -4.8560    0.0000 S   0  0  0  0  0  0  0  0  0  0  0  0
    0.0559   -5.0695    0.0000 C   0  0  0  0  0  0  0  0  0  0  0  0
   -0.3934   -4.3776    0.0000 N   0  0  0  0  0  0  0  0  0  0  0  0
    0.1258   -3.7365    0.0000 C   0  0  0  0  0  0  0  0  0  0  0  0
    0.8960   -4.0321    0.0000 C   0  0  0  0  0  0  0  0  0  0  0  0
   -0.2397   -5.8397    0.0000 N   0  0  0  0  0  0  0  0  0  0  0  0
  1  2  1  0  0  0  0
  2  3  2  0  0  0  0
  3  4  1  0  0  0  0
  4  5  1  0  0  0  0
  5  6  1  0  0  0  0
  1  6  1  0  0  0  0
  6  7  1  0  0  0  0
  7  8  1  0  0  0  0
  1  8  1  0  0  0  0
  9 10  1  0  0  0  0
  9 11  2  0  0  0  0
  2  9  1  0  0  0  0
  8 12  2  0  0  0  0
 14 15  2  0  0  0  0
 14 16  1  0  0  0  0
 16 17  2  0  0  0  0
 18 19  1  0  0  0  0
 19 20  2  0  0  0  0
 20 21  1  0  0  0  0
 21 22  2  0  0  0  0
 18 22  1  0  0  0  0
 19 23  1  0  0  0  0
 16 21  1  0  0  0  0
 13 14  1  0  0  0  0
  7 13  1  0  0  0  0
M  END
>  <Ambiguous>
ambiguous

>  <type>
systematic

$$$$
Pyridinium, 1-[[2-carboxy-7-[(hydroxyphenylacetyl)amino]-8-oxo-5-thia-1-azabicyclo[4.2.0]oct-2-en-3-yl]methyl]-, inner salt, [6R-(6α,7β)]-
  Mrv2401 11022421042D          

 30 33  0  0  0  0            999 V2000
    4.5483   -0.1510    0.0000 N   0  3  0  0  0  0  0  0  0  0  0  0
    5.2628    0.2615    0.0000 C   0  0  0  0  0  0  0  0  0  0  0  0
    5.9773   -0.1510    0.0000 C   0  0  0  0  0  0  0  0  0  0  0  0
    5.9773   -0.9760    0.0000 C   0  0  0  0  0  0  0  0  0  0  0  0
    5.2628   -1.3885    0.0000 C   0  0  0  0  0  0  0  0  0  0  0  0
    4.5483   -0.9760    0.0000 C   0  0  0  0  0  0  0  0  0  0  0  0
    3.8339    0.2615    0.0000 C   0  0  0  0  0  0  0  0  0  0  0  0
    1.6905   -0.1510    0.0000 N   0  0  0  0  0  0  0  0  0  0  0  0
    2.4049    0.2615    0.0000 C   0  0  0  0  0  0  0  0  0  0  0  0
    3.1194   -0.1510    0.0000 C   0  0  0  0  0  0  0  0  0  0  0  0
    3.1194   -0.9760    0.0000 C   0  0  0  0  0  0  0  0  0  0  0  0
    2.4049   -1.3885    0.0000 S   0  0  0  0  0  0  0  0  0  0  0  0
    1.6905   -0.9760    0.0000 C   0  0  0  0  0  0  0  0  0  0  0  0
    0.8655   -0.9760    0.0000 C   0  0  0  0  0  0  0  0  0  0  0  0
    0.8655   -0.1510    0.0000 C   0  0  0  0  0  0  0  0  0  0  0  0
    0.2821    0.4324    0.0000 O   0  0  0  0  0  0  0  0  0  0  0  0
    0.2821   -1.5593    0.0000 N   0  0  0  0  0  0  0  0  0  0  0  0
   -0.5148   -1.3458    0.0000 C   0  0  0  0  0  0  0  0  0  0  0  0
   -0.7283   -0.5489    0.0000 O   0  0  0  0  0  0  0  0  0  0  0  0
   -1.0982   -1.9292    0.0000 C   0  0  0  0  0  0  0  0  0  0  0  0
   -1.8950   -1.7157    0.0000 C   0  0  0  0  0  0  0  0  0  0  0  0
   -2.4784   -2.2990    0.0000 C   0  0  0  0  0  0  0  0  0  0  0  0
   -3.2753   -2.0855    0.0000 C   0  0  0  0  0  0  0  0  0  0  0  0
   -3.4888   -1.2886    0.0000 C   0  0  0  0  0  0  0  0  0  0  0  0
   -2.9055   -0.7052    0.0000 C   0  0  0  0  0  0  0  0  0  0  0  0
   -2.1086   -0.9188    0.0000 C   0  0  0  0  0  0  0  0  0  0  0  0
   -0.8846   -2.7261    0.0000 O   0  0  0  0  0  0  0  0  0  0  0  0
    2.4049    1.0865    0.0000 C   0  0  0  0  0  0  0  0  0  0  0  0
    3.1194    1.4990    0.0000 O   0  0  0  0  0  0  0  0  0  0  0  0
    1.6905    1.4990    0.0000 O   0  0  0  0  0  0  0  0  0  0  0  0
  1  2  2  0  0  0  0
  2  3  1  0  0  0  0
  3  4  2  0  0  0  0
  4  5  1  0  0  0  0
  5  6  2  0  0  0  0
  1  6  1  0  0  0  0
  8  9  1  0  0  0  0
  9 10  2  0  0  0  0
 10 11  1  0  0  0  0
 11 12  1  0  0  0  0
 12 13  1  0  0  0  0
  8 13  1  0  0  0  0
 13 14  1  0  0  0  0
 14 15  1  0  0  0  0
  8 15  1  0  0  0  0
 15 16  2  0  0  0  0
 18 19  2  0  0  0  0
 18 20  1  0  0  0  0
 21 22  2  0  0  0  0
 22 23  1  0  0  0  0
 23 24  2  0  0  0  0
 24 25  1  0  0  0  0
 25 26  2  0  0  0  0
 21 26  1  0  0  0  0
 20 21  1  0  0  0  0
 20 27  1  0  0  0  0
 17 18  1  0  0  0  0
 14 17  1  0  0  0  0
 28 29  1  0  0  0  0
 28 30  2  0  0  0  0
  9 28  1  0  0  0  0
  7 10  1  0  0  0  0
  1  7  1  0  0  0  0
M  CHG  1   1   1
M  END
>  <Ambiguous>
ambiguous

>  <type>
systematic

$$$$
Pyridinium, 1-[[2-carboxy-7-[(hydroxyphenylacetyl)amino]-8-oxo-5-thia-1-azabicyclo[4.2.0]oct-2-en-3-yl]methyl]-, inner salt, [6R-[6α,7β(R*)]]-
  Mrv2401 11022421052D          

  0  0  0     0  0            999 V3000
M  V30 BEGIN CTAB
M  V30 COUNTS 30 33 0 0 1
M  V30 BEGIN ATOM
M  V30 1 N 8.4902 -0.2818 0 0 CHG=1
M  V30 2 C 9.8239 0.4882 0 0
M  V30 3 C 11.1576 -0.2818 0 0
M  V30 4 C 11.1576 -1.8218 0 0
M  V30 5 C 9.8239 -2.5918 0 0
M  V30 6 C 8.4902 -1.8218 0 0
M  V30 7 C 7.1566 0.4882 0 0
M  V30 8 N 3.1555 -0.2818 0 0
M  V30 9 C 4.4892 0.4882 0 0
M  V30 10 C 5.8229 -0.2818 0 0
M  V30 11 C 5.8229 -1.8218 0 0
M  V30 12 S 4.4892 -2.5918 0 0
M  V30 13 C 3.1555 -1.8218 0 0 CFG=2
M  V30 14 C 1.6155 -1.8218 0 0 CFG=1
M  V30 15 C 1.6155 -0.2818 0 0
M  V30 16 O 0.5266 0.8071 0 0
M  V30 17 N 0.5266 -2.9108 0 0
M  V30 18 C -0.961 -2.5122 0 0
M  V30 19 O -1.3595 -1.0247 0 0
M  V30 20 C -2.0499 -3.6011 0 0 CFG=1
M  V30 21 C -3.5374 -3.2026 0 0
M  V30 22 C -4.6264 -4.2915 0 0
M  V30 23 C -6.1139 -3.8929 0 0
M  V30 24 C -6.5125 -2.4054 0 0
M  V30 25 C -5.4235 -1.3165 0 0
M  V30 26 C -3.936 -1.715 0 0
M  V30 27 O -1.6513 -5.0887 0 0
M  V30 28 C 4.4892 2.0282 0 0
M  V30 29 O 5.8229 2.7982 0 0
M  V30 30 O 3.1555 2.7982 0 0
M  V30 END ATOM
M  V30 BEGIN BOND
M  V30 1 2 1 2
M  V30 2 1 2 3
M  V30 3 2 3 4
M  V30 4 1 4 5
M  V30 5 2 5 6
M  V30 6 1 1 6
M  V30 7 1 8 9
M  V30 8 2 9 10
M  V30 9 1 10 11
M  V30 10 1 11 12
M  V30 11 1 13 12
M  V30 12 1 13 8 CFG=3
M  V30 13 1 13 14
M  V30 14 1 14 15
M  V30 15 1 8 15
M  V30 16 2 15 16
M  V30 17 2 18 19
M  V30 18 1 20 18
M  V30 19 2 21 22
M  V30 20 1 22 23
M  V30 21 2 23 24
M  V30 22 1 24 25
M  V30 23 2 25 26
M  V30 24 1 21 26
M  V30 25 1 20 21
M  V30 26 1 20 27 CFG=3
M  V30 27 1 17 18
M  V30 28 1 14 17 CFG=3
M  V30 29 1 28 29
M  V30 30 2 28 30
M  V30 31 1 9 28
M  V30 32 1 7 10
M  V30 33 1 1 7
M  V30 END BOND
M  V30 BEGIN COLLECTION
M  V30 MDLV30/STEREL1 ATOMS=(3 13 14 20)
M  V30 END COLLECTION
M  V30 END CTAB
M  END
>  <Ambiguous>
ambiguous

>  <type>
systematic

$$$$
5-Thia-1-azabicyclo[4.2.0]oct-2-ene-2-carboxylic acid, 7-[(hydroxyphenylacetyl)amino]-3-[[(hydroxyphenylacetyl)oxy]methyl]-8-oxo-, [6 R-(6α,7β)]-
  Mrv2401 11022421062D          

 35 38  0  0  1  0            999 V2000
    1.6905   -0.1510    0.0000 N   0  0  0  0  0  0  0  0  0  0  0  0
    2.4049    0.2615    0.0000 C   0  0  0  0  0  0  0  0  0  0  0  0
    3.1194   -0.1510    0.0000 C   0  0  0  0  0  0  0  0  0  0  0  0
    3.1194   -0.9760    0.0000 C   0  0  0  0  0  0  0  0  0  0  0  0
    2.4049   -1.3885    0.0000 S   0  0  0  0  0  0  0  0  0  0  0  0
    1.6905   -0.9760    0.0000 C   0  0  2  0  0  0  0  0  0  0  0  0
    0.8655   -0.9760    0.0000 C   0  0  2  0  0  0  0  0  0  0  0  0
    0.8655   -0.1510    0.0000 C   0  0  0  0  0  0  0  0  0  0  0  0
    2.4049    1.0865    0.0000 C   0  0  0  0  0  0  0  0  0  0  0  0
    3.1194    1.4990    0.0000 O   0  0  0  0  0  0  0  0  0  0  0  0
    1.6905    1.4990    0.0000 O   0  0  0  0  0  0  0  0  0  0  0  0
    0.2821    0.4324    0.0000 O   0  0  0  0  0  0  0  0  0  0  0  0
    3.8339    0.2615    0.0000 C   0  0  0  0  0  0  0  0  0  0  0  0
    4.5483   -0.1510    0.0000 O   0  0  0  0  0  0  0  0  0  0  0  0
    5.2628    0.2615    0.0000 C   0  0  0  0  0  0  0  0  0  0  0  0
    5.2628    1.0865    0.0000 O   0  0  0  0  0  0  0  0  0  0  0  0
    5.9773   -0.1510    0.0000 C   0  0  0  0  0  0  0  0  0  0  0  0
    6.6918    0.2615    0.0000 C   0  0  0  0  0  0  0  0  0  0  0  0
    6.6918    1.0865    0.0000 C   0  0  0  0  0  0  0  0  0  0  0  0
    7.4062    1.4990    0.0000 C   0  0  0  0  0  0  0  0  0  0  0  0
    8.1207    1.0865    0.0000 C   0  0  0  0  0  0  0  0  0  0  0  0
    8.1207    0.2615    0.0000 C   0  0  0  0  0  0  0  0  0  0  0  0
    7.4062   -0.1510    0.0000 C   0  0  0  0  0  0  0  0  0  0  0  0
    5.9773   -0.9760    0.0000 O   0  0  0  0  0  0  0  0  0  0  0  0
    0.2821   -1.5593    0.0000 N   0  0  0  0  0  0  0  0  0  0  0  0
   -0.5148   -1.3458    0.0000 C   0  0  0  0  0  0  0  0  0  0  0  0
   -0.7283   -0.5489    0.0000 O   0  0  0  0  0  0  0  0  0  0  0  0
   -1.0982   -1.9292    0.0000 C   0  0  0  0  0  0  0  0  0  0  0  0
   -1.8950   -1.7157    0.0000 C   0  0  0  0  0  0  0  0  0  0  0  0
   -2.4784   -2.2990    0.0000 C   0  0  0  0  0  0  0  0  0  0  0  0
   -3.2753   -2.0855    0.0000 C   0  0  0  0  0  0  0  0  0  0  0  0
   -3.4888   -1.2886    0.0000 C   0  0  0  0  0  0  0  0  0  0  0  0
   -2.9055   -0.7052    0.0000 C   0  0  0  0  0  0  0  0  0  0  0  0
   -2.1086   -0.9188    0.0000 C   0  0  0  0  0  0  0  0  0  0  0  0
   -0.8846   -2.7261    0.0000 O   0  0  0  0  0  0  0  0  0  0  0  0
  1  2  1  0  0  0  0
  2  3  2  0  0  0  0
  3  4  1  0  0  0  0
  4  5  1  0  0  0  0
  6  5  1  0  0  0  0
  6  1  1  6  0  0  0
  6  7  1  0  0  0  0
  7  8  1  0  0  0  0
  1  8  1  0  0  0  0
  9 10  1  0  0  0  0
  9 11  2  0  0  0  0
  2  9  1  0  0  0  0
  8 12  2  0  0  0  0
 15 16  2  0  0  0  0
 15 17  1  0  0  0  0
 18 19  2  0  0  0  0
 19 20  1  0  0  0  0
 20 21  2  0  0  0  0
 21 22  1  0  0  0  0
 22 23  2  0  0  0  0
 18 23  1  0  0  0  0
 17 18  1  0  0  0  0
 17 24  1  0  0  0  0
 14 15  1  0  0  0  0
 13 14  1  0  0  0  0
  3 13  1  0  0  0  0
 26 27  2  0  0  0  0
 26 28  1  0  0  0  0
 29 30  2  0  0  0  0
 30 31  1  0  0  0  0
 31 32  2  0  0  0  0
 32 33  1  0  0  0  0
 33 34  2  0  0  0  0
 29 34  1  0  0  0  0
 28 29  1  0  0  0  0
 28 35  1  0  0  0  0
 25 26  1  0  0  0  0
  7 25  1  1  0  0  0
M  END
>  <type>
systematic

$$$$
5-Thia-1-azabicyclo[4.2.0]oct-2-ene-2-carboxylic acid, 7-[[(acetyloxy)-2-thienylacetyl]amino]-3-azido-8-oxo-, [6 R-(6α,7β)]
  Mrv2401 11022421072D          

 28 30  0  0  1  0            999 V2000
    0.9134    0.0679    0.0000 N   0  0  0  0  0  0  0  0  0  0  0  0
    0.3301    0.6512    0.0000 C   0  0  0  0  0  0  0  0  0  0  0  0
    0.5436    1.4481    0.0000 C   0  0  0  0  0  0  0  0  0  0  0  0
    1.3405    1.6616    0.0000 C   0  0  0  0  0  0  0  0  0  0  0  0
    1.9239    1.0783    0.0000 S   0  0  0  0  0  0  0  0  0  0  0  0
    1.7103    0.2814    0.0000 C   0  0  2  0  0  0  0  0  0  0  0  0
    1.9239   -0.5155    0.0000 C   0  0  2  0  0  0  0  0  0  0  0  0
    1.1270   -0.7290    0.0000 C   0  0  0  0  0  0  0  0  0  0  0  0
   -0.4668    0.4377    0.0000 C   0  0  0  0  0  0  0  0  0  0  0  0
   -1.0502    1.0211    0.0000 O   0  0  0  0  0  0  0  0  0  0  0  0
   -0.6803   -0.3592    0.0000 O   0  0  0  0  0  0  0  0  0  0  0  0
    0.7145   -1.4435    0.0000 O   0  0  0  0  0  0  0  0  0  0  0  0
   -0.0398    2.0315    0.0000 N   0  0  0  0  0  0  0  0  0  0  0  0
   -0.8366    1.8180    0.0000 N   0  3  0  0  0  0  0  0  0  0  0  0
   -1.6335    1.6044    0.0000 N   0  5  0  0  0  0  0  0  0  0  0  0
    2.6383   -0.9280    0.0000 N   0  0  0  0  0  0  0  0  0  0  0  0
    2.6383   -1.7530    0.0000 C   0  0  0  0  0  0  0  0  0  0  0  0
    1.9239   -2.1655    0.0000 O   0  0  0  0  0  0  0  0  0  0  0  0
    3.3528   -2.1655    0.0000 C   0  0  0  0  0  0  0  0  0  0  0  0
    2.6854   -3.4754    0.0000 S   0  0  0  0  0  0  0  0  0  0  0  0
    3.3528   -2.9905    0.0000 C   0  0  0  0  0  0  0  0  0  0  0  0
    4.0202   -3.4754    0.0000 C   0  0  0  0  0  0  0  0  0  0  0  0
    3.7653   -4.2600    0.0000 C   0  0  0  0  0  0  0  0  0  0  0  0
    2.9403   -4.2600    0.0000 C   0  0  0  0  0  0  0  0  0  0  0  0
    4.0673   -1.7530    0.0000 O   0  0  0  0  0  0  0  0  0  0  0  0
    4.0673   -0.9280    0.0000 C   0  0  0  0  0  0  0  0  0  0  0  0
    3.3528   -0.5155    0.0000 O   0  0  0  0  0  0  0  0  0  0  0  0
    4.7817   -0.5155    0.0000 C   0  0  0  0  0  0  0  0  0  0  0  0
  1  2  1  0  0  0  0
  2  3  2  0  0  0  0
  3  4  1  0  0  0  0
  4  5  1  0  0  0  0
  6  5  1  0  0  0  0
  6  1  1  6  0  0  0
  6  7  1  0  0  0  0
  7  8  1  0  0  0  0
  1  8  1  0  0  0  0
  9 10  1  0  0  0  0
  9 11  2  0  0  0  0
  2  9  1  0  0  0  0
  8 12  2  0  0  0  0
 13 14  2  0  0  0  0
 14 15  2  0  0  0  0
  3 13  1  0  0  0  0
 17 18  2  0  0  0  0
 17 19  1  0  0  0  0
 20 21  1  0  0  0  0
 21 22  2  0  0  0  0
 22 23  1  0  0  0  0
 23 24  2  0  0  0  0
 20 24  1  0  0  0  0
 19 21  1  0  0  0  0
 25 26  1  0  0  0  0
 26 27  2  0  0  0  0
 26 28  1  0  0  0  0
 19 25  1  0  0  0  0
 16 17  1  0  0  0  0
  7 16  1  1  0  0  0
M  CHG  2  14   1  15  -1
M  END
>  <type>
systematic

$$$$

  Mrv2401 11022421122D          

  0  0  0     0  0            999 V3000
M  V30 BEGIN CTAB
M  V30 COUNTS 27 29 0 0 1
M  V30 BEGIN ATOM
M  V30 1 C 7.1566 0.4882 0 0
M  V30 2 N 3.1555 -0.2818 0 0
M  V30 3 C 4.4892 0.4882 0 0
M  V30 4 C 5.8229 -0.2818 0 0
M  V30 5 C 5.8229 -1.8218 0 0
M  V30 6 S 4.4892 -2.5918 0 0
M  V30 7 C 3.1555 -1.8218 0 0
M  V30 8 C 1.6155 -1.8218 0 0 CFG=1
M  V30 9 C 1.6155 -0.2818 0 0
M  V30 10 O 0.5266 0.8071 0 0
M  V30 11 N 0.5266 -2.9108 0 0
M  V30 12 C -0.961 -2.5122 0 0
M  V30 13 O -1.3595 -1.0247 0 0
M  V30 14 C -2.0499 -3.6011 0 0
M  V30 15 C -3.5374 -3.2026 0 0
M  V30 16 C -4.6264 -4.2915 0 0
M  V30 17 C -6.1139 -3.8929 0 0
M  V30 18 C -6.5125 -2.4054 0 0
M  V30 19 C -5.4235 -1.3165 0 0
M  V30 20 C -3.936 -1.715 0 0
M  V30 21 O -1.6513 -5.0887 0 0
M  V30 22 C 4.4892 2.0282 0 0
M  V30 23 O 5.8229 2.7982 0 0
M  V30 24 O 3.1555 2.7982 0 0
M  V30 25 O 8.4902 -0.2818 0 0
M  V30 26 C 9.8239 0.4882 0 0
M  V30 27 Cl -8 -2.0068 0 0
M  V30 END ATOM
M  V30 BEGIN BOND
M  V30 1 1 2 3
M  V30 2 2 3 4
M  V30 3 1 4 5
M  V30 4 1 5 6
M  V30 5 1 7 6
M  V30 6 1 7 2
M  V30 7 1 7 8
M  V30 8 1 8 9
M  V30 9 1 2 9
M  V30 10 2 9 10
M  V30 11 2 12 13
M  V30 12 1 14 12
M  V30 13 2 15 16
M  V30 14 1 16 17
M  V30 15 2 17 18
M  V30 16 1 18 19
M  V30 17 2 19 20
M  V30 18 1 15 20
M  V30 19 1 14 15
M  V30 20 2 14 21
M  V30 21 1 11 12
M  V30 22 1 8 11 CFG=3
M  V30 23 1 22 23
M  V30 24 2 22 24
M  V30 25 1 3 22
M  V30 26 1 1 4
M  V30 27 1 1 25
M  V30 28 1 25 26
M  V30 29 1 18 27
M  V30 END BOND
M  V30 BEGIN COLLECTION
M  V30 MDLV30/STEREL1 ATOMS=(3 7 8 14)
M  V30 END COLLECTION
M  V30 END CTAB
M  END
>  <Ambiguous>
ambiguous

>  <type>
systematic

$$$$
2-[[(1R)-1-[[(4S)-4-(4-Chlorophenyl)-4-hydroxy-3,3-dimethyl-1-piperidinyl]carbonyl]-2-methylpropyl]amino]-4-thiazolecarboxylic acid
  Mrv2401 11022421122D          

 31 33  0  0  1  0            999 V2000
   -2.7726   -4.8011    0.0000 S   0  0  0  0  0  0  0  0  0  0  0  0
   -3.5976   -4.8011    0.0000 C   0  0  0  0  0  0  0  0  0  0  0  0
   -3.8526   -4.0164    0.0000 N   0  0  0  0  0  0  0  0  0  0  0  0
   -3.1851   -3.5315    0.0000 C   0  0  0  0  0  0  0  0  0  0  0  0
   -2.5177   -4.0164    0.0000 C   0  0  0  0  0  0  0  0  0  0  0  0
   -3.1851   -2.7065    0.0000 C   0  0  0  0  0  0  0  0  0  0  0  0
   -2.4707   -2.2940    0.0000 O   0  0  0  0  0  0  0  0  0  0  0  0
   -3.8996   -2.2940    0.0000 O   0  0  0  0  0  0  0  0  0  0  0  0
   -4.0826   -5.4685    0.0000 N   0  0  0  0  0  0  0  0  0  0  0  0
   -3.7470   -6.2222    0.0000 C   0  0  2  0  0  0  0  0  0  0  0  0
   -2.9265   -6.3084    0.0000 C   0  0  0  0  0  0  0  0  0  0  0  0
   -2.4416   -5.6410    0.0000 C   0  0  0  0  0  0  0  0  0  0  0  0
   -2.5910   -7.0621    0.0000 C   0  0  0  0  0  0  0  0  0  0  0  0
   -4.2319   -6.8896    0.0000 C   0  0  0  0  0  0  0  0  0  0  0  0
   -5.0524   -6.8034    0.0000 O   0  0  0  0  0  0  0  0  0  0  0  0
   -3.2253   -9.1506    0.0000 C   0  0  2  0  0  0  0  0  0  0  0  0
   -4.0457   -9.0644    0.0000 C   0  0  0  0  0  0  0  0  0  0  0  0
   -4.3813   -8.3107    0.0000 C   0  0  0  0  0  0  0  0  0  0  0  0
   -3.8964   -7.6433    0.0000 N   0  0  0  0  0  0  0  0  0  0  0  0
   -3.0759   -7.7295    0.0000 C   0  0  0  0  0  0  0  0  0  0  0  0
   -2.7403   -8.4832    0.0000 C   0  0  0  0  0  0  0  0  0  0  0  0
   -1.9754   -8.1741    0.0000 C   0  0  0  0  0  0  0  0  0  0  0  0
   -2.0564   -8.9445    0.0000 C   0  0  0  0  0  0  0  0  0  0  0  0
   -3.2828   -9.9736    0.0000 O   0  0  0  0  0  0  0  0  0  0  0  0
   -2.5751   -9.6586    0.0000 C   0  0  0  0  0  0  0  0  0  0  0  0
   -1.8102   -9.3495    0.0000 C   0  0  0  0  0  0  0  0  0  0  0  0
   -1.1601   -9.8574    0.0000 C   0  0  0  0  0  0  0  0  0  0  0  0
   -1.2749  -10.6744    0.0000 C   0  0  0  0  0  0  0  0  0  0  0  0
   -2.0399  -10.9835    0.0000 C   0  0  0  0  0  0  0  0  0  0  0  0
   -2.6900  -10.4755    0.0000 C   0  0  0  0  0  0  0  0  0  0  0  0
   -0.6248  -11.1823    0.0000 Cl  0  0  0  0  0  0  0  0  0  0  0  0
  1  2  1  0  0  0  0
  2  3  2  0  0  0  0
  3  4  1  0  0  0  0
  4  5  2  0  0  0  0
  1  5  1  0  0  0  0
  6  7  1  0  0  0  0
  6  8  2  0  0  0  0
  4  6  1  0  0  0  0
 10 11  1  0  0  0  0
 11 12  1  0  0  0  0
 11 13  1  0  0  0  0
 14 15  2  0  0  0  0
 16 17  1  0  0  0  0
 17 18  1  0  0  0  0
 18 19  1  0  0  0  0
 19 20  1  0  0  0  0
 20 21  1  0  0  0  0
 16 21  1  0  0  0  0
 21 22  1  0  0  0  0
 21 23  1  0  0  0  0
 16 24  1  6  0  0  0
 25 26  2  0  0  0  0
 26 27  1  0  0  0  0
 27 28  2  0  0  0  0
 28 29  1  0  0  0  0
 29 30  2  0  0  0  0
 25 30  1  0  0  0  0
 28 31  1  0  0  0  0
 16 25  1  1  0  0  0
 14 19  1  0  0  0  0
 10 14  1  0  0  0  0
 10  9  1  6  0  0  0
  2  9  1  0  0  0  0
M  END
>  <type>
systematic

$$$$

  Mrv2401 11022421412D          

 30 32  0  0  1  0            999 V2000
    1.6905   -0.1510    0.0000 N   0  0  0  0  0  0  0  0  0  0  0  0
    2.4049    0.2615    0.0000 C   0  0  0  0  0  0  0  0  0  0  0  0
    3.1194   -0.1510    0.0000 C   0  0  0  0  0  0  0  0  0  0  0  0
    3.1194   -0.9760    0.0000 C   0  0  0  0  0  0  0  0  0  0  0  0
    2.4049   -1.3885    0.0000 S   0  0  0  0  0  0  0  0  0  0  0  0
    1.6905   -0.9760    0.0000 C   0  0  2  0  0  0  0  0  0  0  0  0
    0.8655   -0.9760    0.0000 C   0  0  1  0  0  0  0  0  0  0  0  0
    0.8655   -0.1510    0.0000 C   0  0  0  0  0  0  0  0  0  0  0  0
    2.4049    1.0865    0.0000 C   0  0  0  0  0  0  0  0  0  0  0  0
    3.1194    1.4990    0.0000 O   0  0  0  0  0  0  0  0  0  0  0  0
    1.6905    1.4990    0.0000 O   0  0  0  0  0  0  0  0  0  0  0  0
    0.2821    0.4324    0.0000 O   0  0  0  0  0  0  0  0  0  0  0  0
    0.6729   -1.7782    0.0000 O   0  0  0  0  0  0  0  0  0  0  0  0
   -0.1182   -2.0125    0.0000 C   0  0  0  0  0  0  0  0  0  0  0  0
    0.0633   -1.1686    0.0000 N   0  0  0  0  0  0  0  0  0  0  0  0
   -0.5046   -0.5701    0.0000 C   0  0  0  0  0  0  0  0  0  0  0  0
   -0.2703    0.2209    0.0000 O   0  0  0  0  0  0  0  0  0  0  0  0
   -1.3068   -0.7627    0.0000 C   0  0  2  0  0  0  0  0  0  0  0  0
   -1.8747   -0.1643    0.0000 C   0  0  0  0  0  0  0  0  0  0  0  0
   -2.6769   -0.3569    0.0000 C   0  0  0  0  0  0  0  0  0  0  0  0
   -3.2448    0.2415    0.0000 C   0  0  0  0  0  0  0  0  0  0  0  0
   -3.0105    1.0326    0.0000 C   0  0  0  0  0  0  0  0  0  0  0  0
   -2.2083    1.2252    0.0000 C   0  0  0  0  0  0  0  0  0  0  0  0
   -1.6404    0.6267    0.0000 C   0  0  0  0  0  0  0  0  0  0  0  0
   -1.5412   -1.5538    0.0000 O   0  0  0  0  0  0  0  0  0  0  0  0
    3.8339    0.2615    0.0000 C   0  0  0  0  0  0  0  0  0  0  0  0
    3.8339    1.0865    0.0000 O   0  0  0  0  0  0  0  0  0  0  0  0
    4.5483    1.4990    0.0000 C   0  0  0  0  0  0  0  0  0  0  0  0
    4.5483    2.3240    0.0000 O   0  0  0  0  0  0  0  0  0  0  0  0
    5.2628    1.0865    0.0000 C   0  0  0  0  0  0  0  0  0  0  0  0
  1  2  1  0  0  0  0
  2  3  2  0  0  0  0
  3  4  1  0  0  0  0
  4  5  1  0  0  0  0
  6  5  1  0  0  0  0
  6  1  1  6  0  0  0
  6  7  1  0  0  0  0
  7  8  1  0  0  0  0
  1  8  1  0  0  0  0
  9 10  1  0  0  0  0
  9 11  2  0  0  0  0
  2  9  1  0  0  0  0
  8 12  2  0  0  0  0
 13 14  1  0  0  0  0
  7 13  1  0  0  0  0
 16 17  2  0  0  0  0
 16 18  1  0  0  0  0
 19 20  2  0  0  0  0
 20 21  1  0  0  0  0
 21 22  2  0  0  0  0
 22 23  1  0  0  0  0
 23 24  2  0  0  0  0
 19 24  1  0  0  0  0
 18 19  1  0  0  0  0
 18 25  1  1  0  0  0
 15 16  1  0  0  0  0
  7 15  1  1  0  0  0
 27 28  1  0  0  0  0
 28 29  2  0  0  0  0
 28 30  1  0  0  0  0
 26 27  1  0  0  0  0
  3 26  1  0  0  0  0
M  END
>  <type>
systematic

$$$$
5-Thia-1-azabicyclo[4.2.0]oct-2-ene-2-carboxylic acid, 7-[[(acetyloxy)-2-thienylacetyl]amino]-3-(azidomethyl)-8-oxo-, [6 R-(6α,7β)]-
  Mrv2401 11022421362D          

 29 31  0  0  1  0            999 V2000
    0.9134    0.0679    0.0000 N   0  0  0  0  0  0  0  0  0  0  0  0
    0.3301    0.6512    0.0000 C   0  0  0  0  0  0  0  0  0  0  0  0
    0.5436    1.4481    0.0000 C   0  0  0  0  0  0  0  0  0  0  0  0
    1.3405    1.6616    0.0000 C   0  0  0  0  0  0  0  0  0  0  0  0
    1.9239    1.0783    0.0000 S   0  0  0  0  0  0  0  0  0  0  0  0
    1.7103    0.2814    0.0000 C   0  0  2  0  0  0  0  0  0  0  0  0
    1.9239   -0.5155    0.0000 C   0  0  2  0  0  0  0  0  0  0  0  0
    1.1270   -0.7290    0.0000 C   0  0  0  0  0  0  0  0  0  0  0  0
   -0.4668    0.4377    0.0000 C   0  0  0  0  0  0  0  0  0  0  0  0
   -1.0502    1.0211    0.0000 O   0  0  0  0  0  0  0  0  0  0  0  0
   -0.6803   -0.3592    0.0000 O   0  0  0  0  0  0  0  0  0  0  0  0
    0.7145   -1.4435    0.0000 O   0  0  0  0  0  0  0  0  0  0  0  0
   -0.0398    2.0315    0.0000 C   0  0  0  0  0  0  0  0  0  0  0  0
    0.1738    2.8284    0.0000 N   0  0  0  0  0  0  0  0  0  0  0  0
   -0.4096    3.4117    0.0000 N   0  3  0  0  0  0  0  0  0  0  0  0
   -0.9930    3.9951    0.0000 N   0  5  0  0  0  0  0  0  0  0  0  0
    2.6383   -0.9280    0.0000 N   0  0  0  0  0  0  0  0  0  0  0  0
    2.6383   -1.7530    0.0000 C   0  0  0  0  0  0  0  0  0  0  0  0
    1.9239   -2.1655    0.0000 O   0  0  0  0  0  0  0  0  0  0  0  0
    3.3528   -2.1655    0.0000 C   0  0  0  0  0  0  0  0  0  0  0  0
    2.6854   -3.4754    0.0000 S   0  0  0  0  0  0  0  0  0  0  0  0
    3.3528   -2.9905    0.0000 C   0  0  0  0  0  0  0  0  0  0  0  0
    4.0202   -3.4754    0.0000 C   0  0  0  0  0  0  0  0  0  0  0  0
    3.7653   -4.2600    0.0000 C   0  0  0  0  0  0  0  0  0  0  0  0
    2.9403   -4.2600    0.0000 C   0  0  0  0  0  0  0  0  0  0  0  0
    4.0673   -1.7530    0.0000 O   0  0  0  0  0  0  0  0  0  0  0  0
    4.0673   -0.9280    0.0000 C   0  0  0  0  0  0  0  0  0  0  0  0
    3.3528   -0.5155    0.0000 O   0  0  0  0  0  0  0  0  0  0  0  0
    4.7817   -0.5155    0.0000 C   0  0  0  0  0  0  0  0  0  0  0  0
  1  2  1  0  0  0  0
  2  3  2  0  0  0  0
  3  4  1  0  0  0  0
  4  5  1  0  0  0  0
  6  5  1  0  0  0  0
  6  1  1  6  0  0  0
  6  7  1  0  0  0  0
  7  8  1  0  0  0  0
  1  8  1  0  0  0  0
  9 10  1  0  0  0  0
  9 11  2  0  0  0  0
  2  9  1  0  0  0  0
  8 12  2  0  0  0  0
 14 15  2  0  0  0  0
 15 16  2  0  0  0  0
 13 14  1  0  0  0  0
  3 13  1  0  0  0  0
 18 19  2  0  0  0  0
 18 20  1  0  0  0  0
 21 22  1  0  0  0  0
 22 23  2  0  0  0  0
 23 24  1  0  0  0  0
 24 25  2  0  0  0  0
 21 25  1  0  0  0  0
 20 22  1  0  0  0  0
 26 27  1  0  0  0  0
 27 28  2  0  0  0  0
 27 29  1  0  0  0  0
 20 26  1  0  0  0  0
 17 18  1  0  0  0  0
  7 17  1  1  0  0  0
M  CHG  2  15   1  16  -1
M  END
>  <type>
systematic

$$$$
5-Thia-1-azabicyclo[4.2.0]oct-2-ene-2-carboxylic acid, 3-[(acetyloxy)methyl]-7-[(hydroxyphenylacetyl)amino]-7-methoxy-8-oxo-, (6R)-
  Mrv2401 11022421422D          

 30 32  0  0  1  0            999 V2000
    1.6905   -0.1510    0.0000 N   0  0  0  0  0  0  0  0  0  0  0  0
    2.4049    0.2615    0.0000 C   0  0  0  0  0  0  0  0  0  0  0  0
    3.1194   -0.1510    0.0000 C   0  0  0  0  0  0  0  0  0  0  0  0
    3.1194   -0.9760    0.0000 C   0  0  0  0  0  0  0  0  0  0  0  0
    2.4049   -1.3885    0.0000 S   0  0  0  0  0  0  0  0  0  0  0  0
    1.6905   -0.9760    0.0000 C   0  0  2  0  0  0  0  0  0  0  0  0
    0.8655   -0.9760    0.0000 C   0  0  0  0  0  0  0  0  0  0  0  0
    0.8655   -0.1510    0.0000 C   0  0  0  0  0  0  0  0  0  0  0  0
    2.4049    1.0865    0.0000 C   0  0  0  0  0  0  0  0  0  0  0  0
    3.1194    1.4990    0.0000 O   0  0  0  0  0  0  0  0  0  0  0  0
    1.6905    1.4990    0.0000 O   0  0  0  0  0  0  0  0  0  0  0  0
    0.2821    0.4324    0.0000 O   0  0  0  0  0  0  0  0  0  0  0  0
    0.6729   -1.7782    0.0000 O   0  0  0  0  0  0  0  0  0  0  0  0
   -0.1182   -2.0125    0.0000 C   0  0  0  0  0  0  0  0  0  0  0  0
    0.0633   -1.1686    0.0000 N   0  0  0  0  0  0  0  0  0  0  0  0
   -0.5046   -0.5701    0.0000 C   0  0  0  0  0  0  0  0  0  0  0  0
   -0.2703    0.2209    0.0000 O   0  0  0  0  0  0  0  0  0  0  0  0
   -1.3068   -0.7627    0.0000 C   0  0  0  0  0  0  0  0  0  0  0  0
   -1.8747   -0.1643    0.0000 C   0  0  0  0  0  0  0  0  0  0  0  0
   -2.6769   -0.3569    0.0000 C   0  0  0  0  0  0  0  0  0  0  0  0
   -3.2448    0.2415    0.0000 C   0  0  0  0  0  0  0  0  0  0  0  0
   -3.0105    1.0326    0.0000 C   0  0  0  0  0  0  0  0  0  0  0  0
   -2.2083    1.2252    0.0000 C   0  0  0  0  0  0  0  0  0  0  0  0
   -1.6404    0.6267    0.0000 C   0  0  0  0  0  0  0  0  0  0  0  0
   -1.5412   -1.5538    0.0000 O   0  0  0  0  0  0  0  0  0  0  0  0
    3.8339    0.2615    0.0000 C   0  0  0  0  0  0  0  0  0  0  0  0
    3.8339    1.0865    0.0000 O   0  0  0  0  0  0  0  0  0  0  0  0
    4.5483    1.4990    0.0000 C   0  0  0  0  0  0  0  0  0  0  0  0
    4.5483    2.3240    0.0000 O   0  0  0  0  0  0  0  0  0  0  0  0
    5.2628    1.0865    0.0000 C   0  0  0  0  0  0  0  0  0  0  0  0
  1  2  1  0  0  0  0
  2  3  2  0  0  0  0
  3  4  1  0  0  0  0
  4  5  1  0  0  0  0
  6  5  1  0  0  0  0
  6  1  1  6  0  0  0
  6  7  1  0  0  0  0
  7  8  1  0  0  0  0
  1  8  1  0  0  0  0
  9 10  1  0  0  0  0
  9 11  2  0  0  0  0
  2  9  1  0  0  0  0
  8 12  2  0  0  0  0
 13 14  1  0  0  0  0
  7 13  1  0  0  0  0
 16 17  2  0  0  0  0
 16 18  1  0  0  0  0
 19 20  2  0  0  0  0
 20 21  1  0  0  0  0
 21 22  2  0  0  0  0
 22 23  1  0  0  0  0
 23 24  2  0  0  0  0
 19 24  1  0  0  0  0
 18 19  1  0  0  0  0
 18 25  1  0  0  0  0
 15 16  1  0  0  0  0
  7 15  1  0  0  0  0
 27 28  1  0  0  0  0
 28 29  2  0  0  0  0
 28 30  1  0  0  0  0
 26 27  1  0  0  0  0
  3 26  1  0  0  0  0
M  END
>  <type>
systematic

$$$$
5-Thia-1-azabicyclo[4.2.0]oct-2-ene-2-carboxylic acid, 3-[(acetyloxy)methyl]-7-[(hydroxyphenylacetyl)amino]-7-methoxy-8-oxo-, [6 R-(6α,7α)]-
  Mrv2401 11022421432D          

 30 32  0  0  1  0            999 V2000
    1.6905   -0.1510    0.0000 N   0  0  0  0  0  0  0  0  0  0  0  0
    2.4049    0.2615    0.0000 C   0  0  0  0  0  0  0  0  0  0  0  0
    3.1194   -0.1510    0.0000 C   0  0  0  0  0  0  0  0  0  0  0  0
    3.1194   -0.9760    0.0000 C   0  0  0  0  0  0  0  0  0  0  0  0
    2.4049   -1.3885    0.0000 S   0  0  0  0  0  0  0  0  0  0  0  0
    1.6905   -0.9760    0.0000 C   0  0  2  0  0  0  0  0  0  0  0  0
    0.8655   -0.9760    0.0000 C   0  0  1  0  0  0  0  0  0  0  0  0
    0.8655   -0.1510    0.0000 C   0  0  0  0  0  0  0  0  0  0  0  0
    2.4049    1.0865    0.0000 C   0  0  0  0  0  0  0  0  0  0  0  0
    3.1194    1.4990    0.0000 O   0  0  0  0  0  0  0  0  0  0  0  0
    1.6905    1.4990    0.0000 O   0  0  0  0  0  0  0  0  0  0  0  0
    0.2821    0.4324    0.0000 O   0  0  0  0  0  0  0  0  0  0  0  0
    0.6729   -1.7782    0.0000 O   0  0  0  0  0  0  0  0  0  0  0  0
   -0.1182   -2.0125    0.0000 C   0  0  0  0  0  0  0  0  0  0  0  0
    0.0633   -1.1686    0.0000 N   0  0  0  0  0  0  0  0  0  0  0  0
   -0.5046   -0.5701    0.0000 C   0  0  0  0  0  0  0  0  0  0  0  0
   -0.2703    0.2209    0.0000 O   0  0  0  0  0  0  0  0  0  0  0  0
   -1.3068   -0.7627    0.0000 C   0  0  0  0  0  0  0  0  0  0  0  0
   -1.8747   -0.1643    0.0000 C   0  0  0  0  0  0  0  0  0  0  0  0
   -2.6769   -0.3569    0.0000 C   0  0  0  0  0  0  0  0  0  0  0  0
   -3.2448    0.2415    0.0000 C   0  0  0  0  0  0  0  0  0  0  0  0
   -3.0105    1.0326    0.0000 C   0  0  0  0  0  0  0  0  0  0  0  0
   -2.2083    1.2252    0.0000 C   0  0  0  0  0  0  0  0  0  0  0  0
   -1.6404    0.6267    0.0000 C   0  0  0  0  0  0  0  0  0  0  0  0
   -1.5412   -1.5538    0.0000 O   0  0  0  0  0  0  0  0  0  0  0  0
    3.8339    0.2615    0.0000 C   0  0  0  0  0  0  0  0  0  0  0  0
    3.8339    1.0865    0.0000 O   0  0  0  0  0  0  0  0  0  0  0  0
    4.5483    1.4990    0.0000 C   0  0  0  0  0  0  0  0  0  0  0  0
    4.5483    2.3240    0.0000 O   0  0  0  0  0  0  0  0  0  0  0  0
    5.2628    1.0865    0.0000 C   0  0  0  0  0  0  0  0  0  0  0  0
  1  2  1  0  0  0  0
  2  3  2  0  0  0  0
  3  4  1  0  0  0  0
  4  5  1  0  0  0  0
  6  5  1  0  0  0  0
  6  1  1  6  0  0  0
  6  7  1  0  0  0  0
  7  8  1  0  0  0  0
  1  8  1  0  0  0  0
  9 10  1  0  0  0  0
  9 11  2  0  0  0  0
  2  9  1  0  0  0  0
  8 12  2  0  0  0  0
 13 14  1  0  0  0  0
  7 13  1  6  0  0  0
 16 17  2  0  0  0  0
 16 18  1  0  0  0  0
 19 20  2  0  0  0  0
 20 21  1  0  0  0  0
 21 22  2  0  0  0  0
 22 23  1  0  0  0  0
 23 24  2  0  0  0  0
 19 24  1  0  0  0  0
 18 19  1  0  0  0  0
 18 25  1  0  0  0  0
 15 16  1  0  0  0  0
  7 15  1  1  0  0  0
 27 28  1  0  0  0  0
 28 29  2  0  0  0  0
 28 30  1  0  0  0  0
 26 27  1  0  0  0  0
  3 26  1  0  0  0  0
M  END
>  <type>
systematic

$$$$
3-[2-(1H-Benzimidazol-1-yl)-2-oxoethyl]-1-[[2-(1H-benzotriazol-1-yl)-2-oxoethyl]imino]-2,3-dihydro-1H-indene-5-carboxylic acid
  Mrv2401 11022421442D          

 37 42  0  0  0  0            999 V2000
   -0.9754   -3.7736    0.0000 C   0  0  0  0  0  0  0  0  0  0  0  0
   -1.4604   -4.4410    0.0000 C   0  0  0  0  0  0  0  0  0  0  0  0
   -2.2450   -4.1861    0.0000 C   0  0  0  0  0  0  0  0  0  0  0  0
   -2.9594   -4.5986    0.0000 C   0  0  0  0  0  0  0  0  0  0  0  0
   -3.6739   -4.1861    0.0000 C   0  0  0  0  0  0  0  0  0  0  0  0
   -3.6739   -3.3611    0.0000 C   0  0  0  0  0  0  0  0  0  0  0  0
   -2.9594   -2.9486    0.0000 C   0  0  0  0  0  0  0  0  0  0  0  0
   -2.2450   -3.3611    0.0000 C   0  0  0  0  0  0  0  0  0  0  0  0
   -1.4604   -3.1062    0.0000 C   0  0  0  0  0  0  0  0  0  0  0  0
   -4.3884   -2.9486    0.0000 C   0  0  0  0  0  0  0  0  0  0  0  0
   -4.3884   -2.1236    0.0000 O   0  0  0  0  0  0  0  0  0  0  0  0
   -5.1029   -3.3611    0.0000 O   0  0  0  0  0  0  0  0  0  0  0  0
   -1.2054   -5.2257    0.0000 N   0  0  0  0  0  0  0  0  0  0  0  0
   -0.3984   -5.3972    0.0000 C   0  0  0  0  0  0  0  0  0  0  0  0
   -0.1435   -6.1818    0.0000 C   0  0  0  0  0  0  0  0  0  0  0  0
   -0.6955   -6.7949    0.0000 O   0  0  0  0  0  0  0  0  0  0  0  0
    0.9990   -7.1070    0.0000 C   0  0  0  0  0  0  0  0  0  0  0  0
    0.6635   -6.3533    0.0000 N   0  0  0  0  0  0  0  0  0  0  0  0
    1.2766   -5.8013    0.0000 N   0  0  0  0  0  0  0  0  0  0  0  0
    1.9910   -6.2138    0.0000 N   0  0  0  0  0  0  0  0  0  0  0  0
    1.8195   -7.0208    0.0000 C   0  0  0  0  0  0  0  0  0  0  0  0
    2.3044   -7.6882    0.0000 C   0  0  0  0  0  0  0  0  0  0  0  0
    1.9689   -8.4419    0.0000 C   0  0  0  0  0  0  0  0  0  0  0  0
    1.1484   -8.5281    0.0000 C   0  0  0  0  0  0  0  0  0  0  0  0
    0.6635   -7.8607    0.0000 C   0  0  0  0  0  0  0  0  0  0  0  0
   -1.2054   -2.3215    0.0000 C   0  0  0  0  0  0  0  0  0  0  0  0
   -0.3984   -2.1500    0.0000 C   0  0  0  0  0  0  0  0  0  0  0  0
    0.1536   -2.7631    0.0000 O   0  0  0  0  0  0  0  0  0  0  0  0
    0.6411   -1.1104    0.0000 C   0  0  0  0  0  0  0  0  0  0  0  0
   -0.1435   -1.3654    0.0000 N   0  0  0  0  0  0  0  0  0  0  0  0
   -0.6284   -0.6979    0.0000 C   0  0  0  0  0  0  0  0  0  0  0  0
   -0.1435   -0.0305    0.0000 N   0  0  0  0  0  0  0  0  0  0  0  0
    0.6411   -0.2854    0.0000 C   0  0  0  0  0  0  0  0  0  0  0  0
    1.3556    0.1271    0.0000 C   0  0  0  0  0  0  0  0  0  0  0  0
    2.0701   -0.2854    0.0000 C   0  0  0  0  0  0  0  0  0  0  0  0
    2.0701   -1.1104    0.0000 C   0  0  0  0  0  0  0  0  0  0  0  0
    1.3556   -1.5229    0.0000 C   0  0  0  0  0  0  0  0  0  0  0  0
  1  2  1  0  0  0  0
  2  3  1  0  0  0  0
  3  4  2  0  0  0  0
  4  5  1  0  0  0  0
  5  6  2  0  0  0  0
  6  7  1  0  0  0  0
  7  8  2  0  0  0  0
  3  8  1  0  0  0  0
  8  9  1  0  0  0  0
  1  9  1  0  0  0  0
 10 11  1  0  0  0  0
 10 12  2  0  0  0  0
  6 10  1  0  0  0  0
 14 15  1  0  0  0  0
 15 16  2  0  0  0  0
 17 18  1  0  0  0  0
 18 19  1  0  0  0  0
 19 20  2  0  0  0  0
 20 21  1  0  0  0  0
 17 21  2  0  0  0  0
 21 22  1  0  0  0  0
 22 23  2  0  0  0  0
 23 24  1  0  0  0  0
 24 25  2  0  0  0  0
 17 25  1  0  0  0  0
 15 18  1  0  0  0  0
 13 14  1  4  0  0  0
  2 13  2  0  0  0  0
 26 27  1  0  0  0  0
 27 28  2  0  0  0  0
 29 30  1  0  0  0  0
 30 31  1  0  0  0  0
 31 32  2  0  0  0  0
 32 33  1  0  0  0  0
 29 33  2  0  0  0  0
 33 34  1  0  0  0  0
 34 35  2  0  0  0  0
 35 36  1  0  0  0  0
 36 37  2  0  0  0  0
 29 37  1  0  0  0  0
 27 30  1  0  0  0  0
  9 26  1  0  0  0  0
M  END
>  <type>
systematic

$$$$
5-Thia-1-azabicyclo[4.2.0]oct-2-ene-2-carboxylic acid, 7-[[(2-amino-4-thiazolyl)oxoacetyl]amino]-3-methyl-8-oxo-, (6R-trans)-
  Mrv2401 11022421442D          

 24 26  0  0  1  0            999 V2000
    1.6905   -0.1510    0.0000 N   0  0  0  0  0  0  0  0  0  0  0  0
    2.4049    0.2615    0.0000 C   0  0  0  0  0  0  0  0  0  0  0  0
    3.1194   -0.1510    0.0000 C   0  0  0  0  0  0  0  0  0  0  0  0
    3.1194   -0.9760    0.0000 C   0  0  0  0  0  0  0  0  0  0  0  0
    2.4049   -1.3885    0.0000 S   0  0  0  0  0  0  0  0  0  0  0  0
    1.6905   -0.9760    0.0000 C   0  0  2  0  0  0  0  0  0  0  0  0
    0.8655   -0.9760    0.0000 C   0  0  0  0  0  0  0  0  0  0  0  0
    0.8655   -0.1510    0.0000 C   0  0  0  0  0  0  0  0  0  0  0  0
    2.4049    1.0865    0.0000 C   0  0  0  0  0  0  0  0  0  0  0  0
    3.1194    1.4990    0.0000 O   0  0  0  0  0  0  0  0  0  0  0  0
    1.6905    1.4990    0.0000 O   0  0  0  0  0  0  0  0  0  0  0  0
    0.2821    0.4324    0.0000 O   0  0  0  0  0  0  0  0  0  0  0  0
    3.8339    0.2615    0.0000 C   0  0  0  0  0  0  0  0  0  0  0  0
    0.2821   -1.5593    0.0000 N   0  0  0  0  0  0  0  0  0  0  0  0
    0.4956   -2.3562    0.0000 C   0  0  0  0  0  0  0  0  0  0  0  0
    1.2925   -2.5698    0.0000 O   0  0  0  0  0  0  0  0  0  0  0  0
   -0.0877   -2.9396    0.0000 C   0  0  0  0  0  0  0  0  0  0  0  0
   -0.8846   -2.7261    0.0000 O   0  0  0  0  0  0  0  0  0  0  0  0
    0.8528   -4.8560    0.0000 S   0  0  0  0  0  0  0  0  0  0  0  0
    0.0559   -5.0695    0.0000 C   0  0  0  0  0  0  0  0  0  0  0  0
   -0.3934   -4.3776    0.0000 N   0  0  0  0  0  0  0  0  0  0  0  0
    0.1258   -3.7365    0.0000 C   0  0  0  0  0  0  0  0  0  0  0  0
    0.8960   -4.0321    0.0000 C   0  0  0  0  0  0  0  0  0  0  0  0
   -0.2397   -5.8397    0.0000 N   0  0  0  0  0  0  0  0  0  0  0  0
  1  2  1  0  0  0  0
  2  3  2  0  0  0  0
  3  4  1  0  0  0  0
  4  5  1  0  0  0  0
  6  5  1  0  0  0  0
  6  1  1  6  0  0  0
  6  7  1  0  0  0  0
  7  8  1  0  0  0  0
  1  8  1  0  0  0  0
  9 10  1  0  0  0  0
  9 11  2  0  0  0  0
  2  9  1  0  0  0  0
  8 12  2  0  0  0  0
  3 13  1  0  0  0  0
 15 16  2  0  0  0  0
 15 17  1  0  0  0  0
 17 18  2  0  0  0  0
 19 20  1  0  0  0  0
 20 21  2  0  0  0  0
 21 22  1  0  0  0  0
 22 23  2  0  0  0  0
 19 23  1  0  0  0  0
 20 24  1  0  0  0  0
 17 22  1  0  0  0  0
 14 15  1  0  0  0  0
  7 14  1  0  0  0  0
M  END
>  <type>
systematic

$$$$
2-[[2-(4,6-Dimethoxy-3-phenyl-1H-indol-7-yl)-2-oxoacetyl]amino]benzoic acid
  Mrv2401 11022421452D          

 33 36  0  0  0  0            999 V2000
    4.0668   -4.8229    0.0000 C   0  0  0  0  0  0  0  0  0  0  0  0
    3.3523   -5.2354    0.0000 C   0  0  0  0  0  0  0  0  0  0  0  0
    3.3523   -6.0604    0.0000 O   0  0  0  0  0  0  0  0  0  0  0  0
    2.6378   -4.8229    0.0000 O   0  0  0  0  0  0  0  0  0  0  0  0
    4.0668   -3.9979    0.0000 C   0  0  0  0  0  0  0  0  0  0  0  0
    4.7812   -3.5854    0.0000 C   0  0  0  0  0  0  0  0  0  0  0  0
    5.4957   -3.9979    0.0000 C   0  0  0  0  0  0  0  0  0  0  0  0
    5.4957   -4.8229    0.0000 C   0  0  0  0  0  0  0  0  0  0  0  0
    4.7812   -5.2354    0.0000 C   0  0  0  0  0  0  0  0  0  0  0  0
    3.3523   -3.5854    0.0000 N   0  0  0  0  0  0  0  0  0  0  0  0
    3.3523   -2.7604    0.0000 C   0  0  0  0  0  0  0  0  0  0  0  0
    4.0668   -2.3479    0.0000 O   0  0  0  0  0  0  0  0  0  0  0  0
    2.6378   -2.3479    0.0000 C   0  0  0  0  0  0  0  0  0  0  0  0
    1.9233   -2.7604    0.0000 O   0  0  0  0  0  0  0  0  0  0  0  0
    0.6538   -0.6979    0.0000 C   0  0  0  0  0  0  0  0  0  0  0  0
    1.1387   -0.0305    0.0000 C   0  0  0  0  0  0  0  0  0  0  0  0
    1.9233   -0.2854    0.0000 C   0  0  0  0  0  0  0  0  0  0  0  0
    2.6378    0.1271    0.0000 C   0  0  0  0  0  0  0  0  0  0  0  0
    3.3523   -0.2854    0.0000 C   0  0  0  0  0  0  0  0  0  0  0  0
    3.3523   -1.1104    0.0000 C   0  0  0  0  0  0  0  0  0  0  0  0
    2.6378   -1.5229    0.0000 C   0  0  0  0  0  0  0  0  0  0  0  0
    1.9233   -1.1104    0.0000 C   0  0  0  0  0  0  0  0  0  0  0  0
    1.1387   -1.3654    0.0000 N   0  0  0  0  0  0  0  0  0  0  0  0
    0.8838    0.7541    0.0000 C   0  0  0  0  0  0  0  0  0  0  0  0
    0.0768    0.9256    0.0000 C   0  0  0  0  0  0  0  0  0  0  0  0
   -0.1781    1.7103    0.0000 C   0  0  0  0  0  0  0  0  0  0  0  0
    0.3739    2.3234    0.0000 C   0  0  0  0  0  0  0  0  0  0  0  0
    1.1809    2.1518    0.0000 C   0  0  0  0  0  0  0  0  0  0  0  0
    1.4358    1.3672    0.0000 C   0  0  0  0  0  0  0  0  0  0  0  0
    2.6378    0.9521    0.0000 O   0  0  0  0  0  0  0  0  0  0  0  0
    1.9233    1.3646    0.0000 C   0  0  0  0  0  0  0  0  0  0  0  0
    4.0668   -1.5229    0.0000 O   0  0  0  0  0  0  0  0  0  0  0  0
    4.7812   -1.1104    0.0000 C   0  0  0  0  0  0  0  0  0  0  0  0
  1  2  1  0  0  0  0
  2  3  1  0  0  0  0
  2  4  2  0  0  0  0
  1  5  2  0  0  0  0
  5  6  1  0  0  0  0
  6  7  2  0  0  0  0
  7  8  1  0  0  0  0
  8  9  2  0  0  0  0
  1  9  1  0  0  0  0
 11 12  2  0  0  0  0
 11 13  1  0  0  0  0
 13 14  2  0  0  0  0
 15 16  2  0  0  0  0
 16 17  1  0  0  0  0
 17 18  1  0  0  0  0
 18 19  2  0  0  0  0
 19 20  1  0  0  0  0
 20 21  2  0  0  0  0
 21 22  1  0  0  0  0
 17 22  2  0  0  0  0
 22 23  1  0  0  0  0
 15 23  1  0  0  0  0
 24 25  2  0  0  0  0
 25 26  1  0  0  0  0
 26 27  2  0  0  0  0
 27 28  1  0  0  0  0
 28 29  2  0  0  0  0
 24 29  1  0  0  0  0
 16 24  1  0  0  0  0
 30 31  1  0  0  0  0
 18 30  1  0  0  0  0
 32 33  1  0  0  0  0
 20 32  1  0  0  0  0
 13 21  1  0  0  0  0
 10 11  1  0  0  0  0
  5 10  1  0  0  0  0
M  END
>  <type>
systematic

$$$$
5-Thia-1-azabicyclo[4.2.0]oct-2-ene-2-carboxylic acid, 3-[(4-carboxyphenyl)methyl]-7-[(hydroxyphenylacetyl)amino]-8-oxo-, [6 R-[6α,7β(R*)]]-
  Mrv2401 11022421462D          

  0  0  0     0  0            999 V3000
M  V30 BEGIN CTAB
M  V30 COUNTS 33 36 0 0 1
M  V30 BEGIN ATOM
M  V30 1 N 3.1555 -0.2818 0 0
M  V30 2 C 4.4892 0.4882 0 0
M  V30 3 C 5.8229 -0.2818 0 0
M  V30 4 C 5.8229 -1.8218 0 0
M  V30 5 S 4.4892 -2.5918 0 0
M  V30 6 C 3.1555 -1.8218 0 0 CFG=2
M  V30 7 C 1.6155 -1.8218 0 0 CFG=1
M  V30 8 C 1.6155 -0.2818 0 0
M  V30 9 C 4.4892 2.0282 0 0
M  V30 10 O 5.8229 2.7982 0 0
M  V30 11 O 3.1555 2.7982 0 0
M  V30 12 O 0.5266 0.8071 0 0
M  V30 13 N 0.5266 -2.9108 0 0
M  V30 14 C -0.961 -2.5122 0 0
M  V30 15 O -1.3595 -1.0247 0 0
M  V30 16 C -2.0499 -3.6011 0 0
M  V30 17 C -3.5374 -3.2026 0 0
M  V30 18 C -4.6264 -4.2915 0 0
M  V30 19 C -6.1139 -3.8929 0 0
M  V30 20 C -6.5125 -2.4054 0 0
M  V30 21 C -5.4235 -1.3165 0 0
M  V30 22 C -3.936 -1.715 0 0
M  V30 23 O -1.6513 -5.0887 0 0
M  V30 24 C 7.1566 0.4882 0 0
M  V30 25 C 8.4902 -0.2818 0 0
M  V30 26 C 9.8239 0.4882 0 0
M  V30 27 C 11.1576 -0.2818 0 0
M  V30 28 C 11.1576 -1.8218 0 0
M  V30 29 C 9.8239 -2.5918 0 0
M  V30 30 C 8.4902 -1.8218 0 0
M  V30 31 C 12.4913 -2.5918 0 0
M  V30 32 O 13.825 -1.8218 0 0
M  V30 33 O 12.4913 -4.1318 0 0
M  V30 END ATOM
M  V30 BEGIN BOND
M  V30 1 1 1 2
M  V30 2 2 2 3
M  V30 3 1 3 4
M  V30 4 1 4 5
M  V30 5 1 6 5
M  V30 6 1 6 1 CFG=3
M  V30 7 1 6 7
M  V30 8 1 7 8
M  V30 9 1 1 8
M  V30 10 1 9 10
M  V30 11 2 9 11
M  V30 12 1 2 9
M  V30 13 2 8 12
M  V30 14 2 14 15
M  V30 15 1 14 16
M  V30 16 2 17 18
M  V30 17 1 18 19
M  V30 18 2 19 20
M  V30 19 1 20 21
M  V30 20 2 21 22
M  V30 21 1 17 22
M  V30 22 1 16 17
M  V30 23 1 16 23
M  V30 24 1 13 14
M  V30 25 1 7 13 CFG=3
M  V30 26 2 25 26
M  V30 27 1 26 27
M  V30 28 2 27 28
M  V30 29 1 28 29
M  V30 30 2 29 30
M  V30 31 1 25 30
M  V30 32 1 31 32
M  V30 33 2 31 33
M  V30 34 1 28 31
M  V30 35 1 24 25
M  V30 36 1 3 24
M  V30 END BOND
M  V30 BEGIN COLLECTION
M  V30 MDLV30/STEREL1 ATOMS=(1 7)
M  V30 END COLLECTION
M  V30 END CTAB
M  END
>  <type>
systematic

$$$$
7-[(2-Hydroxy-2-phenylacetyl)amino]-4-methyl-8-oxo-5-thia-1-azatricyclo[4.2.0.02,4]octane-2-carboxylic acid
  Mrv2401 11022421472D          

 24 27  0  0  0  0            999 V2000
    1.8719    0.1175    0.0000 N   0  0  0  0  0  0  0  0  0  0  0  0
    2.6965    0.1437    0.0000 C   0  0  0  0  0  0  0  0  0  0  0  0
    3.5085   -0.0022    0.0000 C   0  0  0  0  0  0  0  0  0  0  0  0
    2.9762   -0.6325    0.0000 C   0  0  0  0  0  0  0  0  0  0  0  0
    2.3245   -1.1383    0.0000 S   0  0  0  0  0  0  0  0  0  0  0  0
    1.6420   -0.6748    0.0000 C   0  0  0  0  0  0  0  0  0  0  0  0
    0.8497   -0.4449    0.0000 C   0  0  0  0  0  0  0  0  0  0  0  0
    1.0796    0.3474    0.0000 C   0  0  0  0  0  0  0  0  0  0  0  0
    2.7567    0.9665    0.0000 C   0  0  0  0  0  0  0  0  0  0  0  0
    2.0742    1.4300    0.0000 O   0  0  0  0  0  0  0  0  0  0  0  0
    3.4994    1.3257    0.0000 O   0  0  0  0  0  0  0  0  0  0  0  0
    0.6820    1.0703    0.0000 O   0  0  0  0  0  0  0  0  0  0  0  0
    3.5474   -1.2278    0.0000 C   0  0  0  0  0  0  0  0  0  0  0  0
    0.1268   -0.8425    0.0000 N   0  0  0  0  0  0  0  0  0  0  0  0
   -0.5790   -0.4154    0.0000 C   0  0  0  0  0  0  0  0  0  0  0  0
   -0.5619    0.4095    0.0000 O   0  0  0  0  0  0  0  0  0  0  0  0
   -1.3018   -0.8130    0.0000 C   0  0  0  0  0  0  0  0  0  0  0  0
   -2.0076   -0.3858    0.0000 C   0  0  0  0  0  0  0  0  0  0  0  0
   -2.7304   -0.7835    0.0000 C   0  0  0  0  0  0  0  0  0  0  0  0
   -3.4362   -0.3563    0.0000 C   0  0  0  0  0  0  0  0  0  0  0  0
   -3.4192    0.4685    0.0000 C   0  0  0  0  0  0  0  0  0  0  0  0
   -2.6964    0.8662    0.0000 C   0  0  0  0  0  0  0  0  0  0  0  0
   -1.9906    0.4390    0.0000 C   0  0  0  0  0  0  0  0  0  0  0  0
   -1.3188   -1.6378    0.0000 O   0  0  0  0  0  0  0  0  0  0  0  0
  1  2  1  0  0  0  0
  2  3  1  0  0  0  0
  3  4  1  0  0  0  0
  2  4  1  0  0  0  0
  4  5  1  0  0  0  0
  5  6  1  0  0  0  0
  1  6  1  0  0  0  0
  6  7  1  0  0  0  0
  7  8  1  0  0  0  0
  1  8  1  0  0  0  0
  9 10  1  0  0  0  0
  9 11  2  0  0  0  0
  2  9  1  0  0  0  0
  8 12  2  0  0  0  0
  4 13  1  0  0  0  0
 15 16  2  0  0  0  0
 15 17  1  0  0  0  0
 18 19  2  0  0  0  0
 19 20  1  0  0  0  0
 20 21  2  0  0  0  0
 21 22  1  0  0  0  0
 22 23  2  0  0  0  0
 18 23  1  0  0  0  0
 17 18  1  0  0  0  0
 17 24  1  0  0  0  0
 14 15  1  0  0  0  0
  7 14  1  0  0  0  0
M  END
>  <type>
systematic

$$$$
5-Thia-1-azabicyclo[4.2.0]oct-2-ene-2-carboxylic acid, 3-[(acetyloxy)methyl]-7-[[(2,3-dihydro-5-benzofuranyl)hydroxyacetyl]amino]-8-oxo-, [6 R-(6α,7β)]-
  Mrv2401 11022421492D          

 31 34  0  0  1  0            999 V2000
    2.5136   -5.0279    0.0000 N   0  0  0  0  0  0  0  0  0  0  0  0
    2.8881   -5.7629    0.0000 C   0  0  0  0  0  0  0  0  0  0  0  0
    2.4388   -6.4548    0.0000 C   0  0  0  0  0  0  0  0  0  0  0  0
    1.6149   -6.4117    0.0000 C   0  0  0  0  0  0  0  0  0  0  0  0
    1.2404   -5.6766    0.0000 S   0  0  0  0  0  0  0  0  0  0  0  0
    1.6897   -4.9847    0.0000 C   0  0  2  0  0  0  0  0  0  0  0  0
    1.7329   -4.1608    0.0000 C   0  0  2  0  0  0  0  0  0  0  0  0
    2.5568   -4.2040    0.0000 C   0  0  0  0  0  0  0  0  0  0  0  0
    3.7120   -5.8061    0.0000 C   0  0  0  0  0  0  0  0  0  0  0  0
    4.0866   -6.5412    0.0000 O   0  0  0  0  0  0  0  0  0  0  0  0
    4.1613   -5.1142    0.0000 O   0  0  0  0  0  0  0  0  0  0  0  0
    3.1699   -3.6520    0.0000 O   0  0  0  0  0  0  0  0  0  0  0  0
    1.1809   -3.5477    0.0000 N   0  0  0  0  0  0  0  0  0  0  0  0
    1.4358   -2.7631    0.0000 C   0  0  0  0  0  0  0  0  0  0  0  0
    2.2428   -2.5916    0.0000 O   0  0  0  0  0  0  0  0  0  0  0  0
    0.8838   -2.1500    0.0000 C   0  0  0  0  0  0  0  0  0  0  0  0
    0.0768   -2.3215    0.0000 O   0  0  0  0  0  0  0  0  0  0  0  0
    1.1387   -1.3654    0.0000 C   0  0  0  0  0  0  0  0  0  0  0  0
    0.6538   -0.6979    0.0000 C   0  0  0  0  0  0  0  0  0  0  0  0
    1.1387   -0.0305    0.0000 C   0  0  0  0  0  0  0  0  0  0  0  0
    1.9233   -0.2854    0.0000 C   0  0  0  0  0  0  0  0  0  0  0  0
    2.6378    0.1271    0.0000 C   0  0  0  0  0  0  0  0  0  0  0  0
    3.3523   -0.2854    0.0000 O   0  0  0  0  0  0  0  0  0  0  0  0
    3.3523   -1.1104    0.0000 C   0  0  0  0  0  0  0  0  0  0  0  0
    2.6378   -1.5229    0.0000 C   0  0  0  0  0  0  0  0  0  0  0  0
    1.9233   -1.1104    0.0000 C   0  0  0  0  0  0  0  0  0  0  0  0
    2.8134   -7.1899    0.0000 C   0  0  0  0  0  0  0  0  0  0  0  0
    3.6372   -7.2331    0.0000 O   0  0  0  0  0  0  0  0  0  0  0  0
    4.0118   -7.9682    0.0000 C   0  0  0  0  0  0  0  0  0  0  0  0
    4.8356   -8.0114    0.0000 O   0  0  0  0  0  0  0  0  0  0  0  0
    3.5624   -8.6601    0.0000 C   0  0  0  0  0  0  0  0  0  0  0  0
  1  2  1  0  0  0  0
  2  3  2  0  0  0  0
  3  4  1  0  0  0  0
  4  5  1  0  0  0  0
  6  5  1  0  0  0  0
  6  1  1  6  0  0  0
  6  7  1  0  0  0  0
  7  8  1  0  0  0  0
  1  8  1  0  0  0  0
  9 10  1  0  0  0  0
  9 11  2  0  0  0  0
  2  9  1  0  0  0  0
  8 12  2  0  0  0  0
 14 15  2  0  0  0  0
 14 16  1  0  0  0  0
 16 17  1  0  0  0  0
 18 19  1  0  0  0  0
 19 20  1  0  0  0  0
 20 21  1  0  0  0  0
 21 22  2  0  0  0  0
 22 23  1  0  0  0  0
 23 24  1  0  0  0  0
 24 25  2  0  0  0  0
 25 26  1  0  0  0  0
 18 26  2  0  0  0  0
 21 26  1  0  0  0  0
 16 18  1  0  0  0  0
 13 14  1  0  0  0  0
  7 13  1  1  0  0  0
 28 29  1  0  0  0  0
 29 30  2  0  0  0  0
 29 31  1  0  0  0  0
 27 28  1  0  0  0  0
  3 27  1  0  0  0  0
M  END
>  <type>
systematic

$$$$
3-[(Acetyloxy)methyl]-7-[[2-(2,3-dihydro-5-benzofuranyl)-2-hydroxyacetyl]amino]-8-oxo-5-thia-1-azabicyclo[4.2.0]oct-2-ene-2-carboxylic acid
  Mrv2401 11022421502D          

 31 34  0  0  0  0            999 V2000
    2.5136   -5.0279    0.0000 N   0  0  0  0  0  0  0  0  0  0  0  0
    2.8881   -5.7629    0.0000 C   0  0  0  0  0  0  0  0  0  0  0  0
    2.4388   -6.4548    0.0000 C   0  0  0  0  0  0  0  0  0  0  0  0
    1.6149   -6.4117    0.0000 C   0  0  0  0  0  0  0  0  0  0  0  0
    1.2404   -5.6766    0.0000 S   0  0  0  0  0  0  0  0  0  0  0  0
    1.6897   -4.9847    0.0000 C   0  0  0  0  0  0  0  0  0  0  0  0
    1.7329   -4.1608    0.0000 C   0  0  0  0  0  0  0  0  0  0  0  0
    2.5568   -4.2040    0.0000 C   0  0  0  0  0  0  0  0  0  0  0  0
    3.7120   -5.8061    0.0000 C   0  0  0  0  0  0  0  0  0  0  0  0
    4.0866   -6.5412    0.0000 O   0  0  0  0  0  0  0  0  0  0  0  0
    4.1613   -5.1142    0.0000 O   0  0  0  0  0  0  0  0  0  0  0  0
    3.1699   -3.6520    0.0000 O   0  0  0  0  0  0  0  0  0  0  0  0
    1.1809   -3.5477    0.0000 N   0  0  0  0  0  0  0  0  0  0  0  0
    1.4358   -2.7631    0.0000 C   0  0  0  0  0  0  0  0  0  0  0  0
    2.2428   -2.5916    0.0000 O   0  0  0  0  0  0  0  0  0  0  0  0
    0.8838   -2.1500    0.0000 C   0  0  0  0  0  0  0  0  0  0  0  0
    0.0768   -2.3215    0.0000 O   0  0  0  0  0  0  0  0  0  0  0  0
    1.1387   -1.3654    0.0000 C   0  0  0  0  0  0  0  0  0  0  0  0
    0.6538   -0.6979    0.0000 C   0  0  0  0  0  0  0  0  0  0  0  0
    1.1387   -0.0305    0.0000 C   0  0  0  0  0  0  0  0  0  0  0  0
    1.9233   -0.2854    0.0000 C   0  0  0  0  0  0  0  0  0  0  0  0
    2.6378    0.1271    0.0000 C   0  0  0  0  0  0  0  0  0  0  0  0
    3.3523   -0.2854    0.0000 O   0  0  0  0  0  0  0  0  0  0  0  0
    3.3523   -1.1104    0.0000 C   0  0  0  0  0  0  0  0  0  0  0  0
    2.6378   -1.5229    0.0000 C   0  0  0  0  0  0  0  0  0  0  0  0
    1.9233   -1.1104    0.0000 C   0  0  0  0  0  0  0  0  0  0  0  0
    2.8134   -7.1899    0.0000 C   0  0  0  0  0  0  0  0  0  0  0  0
    3.6372   -7.2331    0.0000 O   0  0  0  0  0  0  0  0  0  0  0  0
    4.0118   -7.9682    0.0000 C   0  0  0  0  0  0  0  0  0  0  0  0
    4.8356   -8.0114    0.0000 O   0  0  0  0  0  0  0  0  0  0  0  0
    3.5624   -8.6601    0.0000 C   0  0  0  0  0  0  0  0  0  0  0  0
  1  2  1  0  0  0  0
  2  3  2  0  0  0  0
  3  4  1  0  0  0  0
  4  5  1  0  0  0  0
  5  6  1  0  0  0  0
  1  6  1  0  0  0  0
  6  7  1  0  0  0  0
  7  8  1  0  0  0  0
  1  8  1  0  0  0  0
  9 10  1  0  0  0  0
  9 11  2  0  0  0  0
  2  9  1  0  0  0  0
  8 12  2  0  0  0  0
 14 15  2  0  0  0  0
 14 16  1  0  0  0  0
 16 17  1  0  0  0  0
 18 19  1  0  0  0  0
 19 20  1  0  0  0  0
 20 21  1  0  0  0  0
 21 22  2  0  0  0  0
 22 23  1  0  0  0  0
 23 24  1  0  0  0  0
 24 25  2  0  0  0  0
 25 26  1  0  0  0  0
 18 26  2  0  0  0  0
 21 26  1  0  0  0  0
 16 18  1  0  0  0  0
 13 14  1  0  0  0  0
  7 13  1  0  0  0  0
 28 29  1  0  0  0  0
 29 30  2  0  0  0  0
 29 31  1  0  0  0  0
 27 28  1  0  0  0  0
  3 27  1  0  0  0  0
M  END
>  <type>
systematic

$$$$
8H-Azeto[1,2- a][1,2,3]triazolo[5,1- c]pyrazine-6-carboxylic acid, 9,9a-dihydro-9-[(hydroxyphenylacetyl)amino]-5-methyl-8-oxo-, [9 S-[9α(S*),9aβ]]-
  Mrv2401 11022421522D          

 27 30  0  0  1  0            999 V2000
    1.6456    2.8210    0.0000 C   0  0  0  0  0  0  0  0  0  0  0  0
    0.8212    2.8516    0.0000 C   0  0  0  0  0  0  0  0  0  0  0  0
    2.2912    0.9542    0.0000 C   0  0  2  0  0  0  0  0  0  0  0  0
    2.7299    1.6529    0.0000 C   0  0  0  0  0  0  0  0  0  0  0  0
    2.0313    2.0917    0.0000 N   0  0  0  0  0  0  0  0  0  0  0  0
    1.5925    1.3930    0.0000 C   0  0  0  0  0  0  0  0  0  0  0  0
    0.3824    2.1530    0.0000 N   0  0  0  0  0  0  0  0  0  0  0  0
   -0.4304    2.0116    0.0000 N   0  0  0  0  0  0  0  0  0  0  0  0
   -0.5470    1.1949    0.0000 N   0  0  0  0  0  0  0  0  0  0  0  0
    0.1936    0.8315    0.0000 C   0  0  0  0  0  0  0  0  0  0  0  0
    0.7681    1.4237    0.0000 C   0  0  0  0  0  0  0  0  0  0  0  0
    2.0844    3.5196    0.0000 C   0  0  0  0  0  0  0  0  0  0  0  0
    1.6988    4.2489    0.0000 O   0  0  0  0  0  0  0  0  0  0  0  0
    2.9089    3.4889    0.0000 O   0  0  0  0  0  0  0  0  0  0  0  0
    3.5342    1.8366    0.0000 O   0  0  0  0  0  0  0  0  0  0  0  0
    0.4356    3.5810    0.0000 C   0  0  0  0  0  0  0  0  0  0  0  0
    2.4749    0.1500    0.0000 N   0  0  0  0  0  0  0  0  0  0  0  0
    1.8703   -0.4113    0.0000 C   0  0  0  0  0  0  0  0  0  0  0  0
    1.0819   -0.1683    0.0000 O   0  0  0  0  0  0  0  0  0  0  0  0
    2.0540   -1.2156    0.0000 C   0  0  0  0  0  0  0  0  0  0  0  0
    1.4494   -1.7769    0.0000 C   0  0  0  0  0  0  0  0  0  0  0  0
    1.6331   -2.5811    0.0000 C   0  0  0  0  0  0  0  0  0  0  0  0
    1.0285   -3.1424    0.0000 C   0  0  0  0  0  0  0  0  0  0  0  0
    0.2401   -2.8994    0.0000 C   0  0  0  0  0  0  0  0  0  0  0  0
    0.0563   -2.0951    0.0000 C   0  0  0  0  0  0  0  0  0  0  0  0
    0.6610   -1.5339    0.0000 C   0  0  0  0  0  0  0  0  0  0  0  0
    2.8424   -1.4586    0.0000 O   0  0  0  0  0  0  0  0  0  0  0  0
 11  6  1  0  0  0  0
  5  1  1  0  0  0  0
  1  2  2  0  0  0  0
  2  7  1  0  0  0  0
  3  4  1  0  0  0  0
  4  5  1  0  0  0  0
  5  6  1  0  0  0  0
  3  6  1  0  0  0  0
  7  8  1  0  0  0  0
  8  9  2  0  0  0  0
  9 10  1  0  0  0  0
 10 11  2  0  0  0  0
  7 11  1  0  0  0  0
 12 13  1  0  0  0  0
 12 14  2  0  0  0  0
  1 12  1  0  0  0  0
  4 15  2  0  0  0  0
  2 16  1  0  0  0  0
 18 19  2  0  0  0  0
 18 20  1  0  0  0  0
 21 22  2  0  0  0  0
 22 23  1  0  0  0  0
 23 24  2  0  0  0  0
 24 25  1  0  0  0  0
 25 26  2  0  0  0  0
 21 26  1  0  0  0  0
 20 21  1  0  0  0  0
 20 27  1  0  0  0  0
 17 18  1  0  0  0  0
  3 17  1  1  0  0  0
M  END
>  <type>
systematic

$$$$
8H-Azeto[1,2- a][1,2,3]triazolo[5,1- c]pyrazine-6-carboxylic acid, 9,9a-dihydro-9-[(hydroxyphenylacetyl)amino]-5-methyl-8-oxo-, [9 R-[9α(R*),9aβ]]-
  Mrv2401 11022421522D          

 27 30  0  0  1  0            999 V2000
    1.6456    2.8210    0.0000 C   0  0  0  0  0  0  0  0  0  0  0  0
    0.8212    2.8516    0.0000 C   0  0  0  0  0  0  0  0  0  0  0  0
    2.2912    0.9542    0.0000 C   0  0  1  0  0  0  0  0  0  0  0  0
    2.7299    1.6529    0.0000 C   0  0  0  0  0  0  0  0  0  0  0  0
    2.0313    2.0917    0.0000 N   0  0  0  0  0  0  0  0  0  0  0  0
    1.5925    1.3930    0.0000 C   0  0  0  0  0  0  0  0  0  0  0  0
    0.3824    2.1530    0.0000 N   0  0  0  0  0  0  0  0  0  0  0  0
   -0.4304    2.0116    0.0000 N   0  0  0  0  0  0  0  0  0  0  0  0
   -0.5470    1.1949    0.0000 N   0  0  0  0  0  0  0  0  0  0  0  0
    0.1936    0.8315    0.0000 C   0  0  0  0  0  0  0  0  0  0  0  0
    0.7681    1.4237    0.0000 C   0  0  0  0  0  0  0  0  0  0  0  0
    2.0844    3.5196    0.0000 C   0  0  0  0  0  0  0  0  0  0  0  0
    1.6988    4.2489    0.0000 O   0  0  0  0  0  0  0  0  0  0  0  0
    2.9089    3.4889    0.0000 O   0  0  0  0  0  0  0  0  0  0  0  0
    3.5342    1.8366    0.0000 O   0  0  0  0  0  0  0  0  0  0  0  0
    0.4356    3.5810    0.0000 C   0  0  0  0  0  0  0  0  0  0  0  0
    2.4749    0.1500    0.0000 N   0  0  0  0  0  0  0  0  0  0  0  0
    1.8703   -0.4113    0.0000 C   0  0  0  0  0  0  0  0  0  0  0  0
    1.0819   -0.1683    0.0000 O   0  0  0  0  0  0  0  0  0  0  0  0
    2.0540   -1.2156    0.0000 C   0  0  0  0  0  0  0  0  0  0  0  0
    1.4494   -1.7769    0.0000 C   0  0  0  0  0  0  0  0  0  0  0  0
    1.6331   -2.5811    0.0000 C   0  0  0  0  0  0  0  0  0  0  0  0
    1.0285   -3.1424    0.0000 C   0  0  0  0  0  0  0  0  0  0  0  0
    0.2401   -2.8994    0.0000 C   0  0  0  0  0  0  0  0  0  0  0  0
    0.0563   -2.0951    0.0000 C   0  0  0  0  0  0  0  0  0  0  0  0
    0.6610   -1.5339    0.0000 C   0  0  0  0  0  0  0  0  0  0  0  0
    2.8424   -1.4586    0.0000 O   0  0  0  0  0  0  0  0  0  0  0  0
 11  6  1  0  0  0  0
  5  1  1  0  0  0  0
  1  2  2  0  0  0  0
  2  7  1  0  0  0  0
  3  4  1  0  0  0  0
  4  5  1  0  0  0  0
  5  6  1  0  0  0  0
  3  6  1  0  0  0  0
  7  8  1  0  0  0  0
  8  9  2  0  0  0  0
  9 10  1  0  0  0  0
 10 11  2  0  0  0  0
  7 11  1  0  0  0  0
 12 13  1  0  0  0  0
 12 14  2  0  0  0  0
  1 12  1  0  0  0  0
  4 15  2  0  0  0  0
  2 16  1  0  0  0  0
 18 19  2  0  0  0  0
 18 20  1  0  0  0  0
 21 22  2  0  0  0  0
 22 23  1  0  0  0  0
 23 24  2  0  0  0  0
 24 25  1  0  0  0  0
 25 26  2  0  0  0  0
 21 26  1  0  0  0  0
 20 21  1  0  0  0  0
 20 27  1  0  0  0  0
 17 18  1  0  0  0  0
  3 17  1  6  0  0  0
M  END
>  <type>
systematic

$$$$
2-[[2-[4,6-Dimethoxy-3-(4-methylphenyl)-1H-indol-7-yl]-2-oxoacetyl]amino]benzoic acid
  Mrv2401 11022421532D          

 34 37  0  0  0  0            999 V2000
    4.0668   -4.8229    0.0000 C   0  0  0  0  0  0  0  0  0  0  0  0
    3.3523   -5.2354    0.0000 C   0  0  0  0  0  0  0  0  0  0  0  0
    3.3523   -6.0604    0.0000 O   0  0  0  0  0  0  0  0  0  0  0  0
    2.6378   -4.8229    0.0000 O   0  0  0  0  0  0  0  0  0  0  0  0
    4.0668   -3.9979    0.0000 C   0  0  0  0  0  0  0  0  0  0  0  0
    4.7812   -3.5854    0.0000 C   0  0  0  0  0  0  0  0  0  0  0  0
    5.4957   -3.9979    0.0000 C   0  0  0  0  0  0  0  0  0  0  0  0
    5.4957   -4.8229    0.0000 C   0  0  0  0  0  0  0  0  0  0  0  0
    4.7812   -5.2354    0.0000 C   0  0  0  0  0  0  0  0  0  0  0  0
    3.3523   -3.5854    0.0000 N   0  0  0  0  0  0  0  0  0  0  0  0
    3.3523   -2.7604    0.0000 C   0  0  0  0  0  0  0  0  0  0  0  0
    4.0668   -2.3479    0.0000 O   0  0  0  0  0  0  0  0  0  0  0  0
    2.6378   -2.3479    0.0000 C   0  0  0  0  0  0  0  0  0  0  0  0
    1.9233   -2.7604    0.0000 O   0  0  0  0  0  0  0  0  0  0  0  0
    0.6538   -0.6979    0.0000 C   0  0  0  0  0  0  0  0  0  0  0  0
    1.1387   -0.0305    0.0000 C   0  0  0  0  0  0  0  0  0  0  0  0
    1.9233   -0.2854    0.0000 C   0  0  0  0  0  0  0  0  0  0  0  0
    2.6378    0.1271    0.0000 C   0  0  0  0  0  0  0  0  0  0  0  0
    3.3523   -0.2854    0.0000 C   0  0  0  0  0  0  0  0  0  0  0  0
    3.3523   -1.1104    0.0000 C   0  0  0  0  0  0  0  0  0  0  0  0
    2.6378   -1.5229    0.0000 C   0  0  0  0  0  0  0  0  0  0  0  0
    1.9233   -1.1104    0.0000 C   0  0  0  0  0  0  0  0  0  0  0  0
    1.1387   -1.3654    0.0000 N   0  0  0  0  0  0  0  0  0  0  0  0
    0.8838    0.7541    0.0000 C   0  0  0  0  0  0  0  0  0  0  0  0
    0.0768    0.9256    0.0000 C   0  0  0  0  0  0  0  0  0  0  0  0
   -0.1781    1.7103    0.0000 C   0  0  0  0  0  0  0  0  0  0  0  0
    0.3739    2.3234    0.0000 C   0  0  0  0  0  0  0  0  0  0  0  0
    1.1809    2.1518    0.0000 C   0  0  0  0  0  0  0  0  0  0  0  0
    1.4358    1.3672    0.0000 C   0  0  0  0  0  0  0  0  0  0  0  0
    0.1190    3.1080    0.0000 C   0  0  0  0  0  0  0  0  0  0  0  0
    2.6378    0.9521    0.0000 O   0  0  0  0  0  0  0  0  0  0  0  0
    1.9233    1.3646    0.0000 C   0  0  0  0  0  0  0  0  0  0  0  0
    4.0668   -1.5229    0.0000 O   0  0  0  0  0  0  0  0  0  0  0  0
    4.7812   -1.1104    0.0000 C   0  0  0  0  0  0  0  0  0  0  0  0
  1  2  1  0  0  0  0
  2  3  1  0  0  0  0
  2  4  2  0  0  0  0
  1  5  2  0  0  0  0
  5  6  1  0  0  0  0
  6  7  2  0  0  0  0
  7  8  1  0  0  0  0
  8  9  2  0  0  0  0
  1  9  1  0  0  0  0
 11 12  2  0  0  0  0
 11 13  1  0  0  0  0
 13 14  2  0  0  0  0
 15 16  2  0  0  0  0
 16 17  1  0  0  0  0
 17 18  1  0  0  0  0
 18 19  2  0  0  0  0
 19 20  1  0  0  0  0
 20 21  2  0  0  0  0
 21 22  1  0  0  0  0
 17 22  2  0  0  0  0
 22 23  1  0  0  0  0
 15 23  1  0  0  0  0
 24 25  2  0  0  0  0
 25 26  1  0  0  0  0
 26 27  2  0  0  0  0
 27 28  1  0  0  0  0
 28 29  2  0  0  0  0
 24 29  1  0  0  0  0
 27 30  1  0  0  0  0
 16 24  1  0  0  0  0
 31 32  1  0  0  0  0
 18 31  1  0  0  0  0
 33 34  1  0  0  0  0
 20 33  1  0  0  0  0
 13 21  1  0  0  0  0
 10 11  1  0  0  0  0
  5 10  1  0  0  0  0
M  END
>  <type>
systematic

$$$$
2-(Dimethylamino)-5-[[2-oxo-2-(2-phenyl-3-indolizinyl)acetyl]amino]benzoic acid
  Mrv2401 11022421532D          

 32 35  0  0  0  0            999 V2000
    3.0919   -2.3815    0.0000 C   0  0  0  0  0  0  0  0  0  0  0  0
    3.8989   -2.2100    0.0000 C   0  0  0  0  0  0  0  0  0  0  0  0
    4.1538   -1.4253    0.0000 O   0  0  0  0  0  0  0  0  0  0  0  0
    4.4509   -2.8231    0.0000 O   0  0  0  0  0  0  0  0  0  0  0  0
    2.8370   -3.1661    0.0000 C   0  0  0  0  0  0  0  0  0  0  0  0
    2.0300   -3.3376    0.0000 C   0  0  0  0  0  0  0  0  0  0  0  0
    1.4780   -2.7246    0.0000 C   0  0  0  0  0  0  0  0  0  0  0  0
    1.7329   -1.9399    0.0000 C   0  0  0  0  0  0  0  0  0  0  0  0
    2.5399   -1.7684    0.0000 C   0  0  0  0  0  0  0  0  0  0  0  0
    1.1809   -1.3268    0.0000 N   0  0  0  0  0  0  0  0  0  0  0  0
    1.4358   -0.5422    0.0000 C   0  0  0  0  0  0  0  0  0  0  0  0
    2.2428   -0.3707    0.0000 O   0  0  0  0  0  0  0  0  0  0  0  0
    0.8838    0.0709    0.0000 C   0  0  0  0  0  0  0  0  0  0  0  0
    3.3523    1.9354    0.0000 C   0  0  0  0  0  0  0  0  0  0  0  0
    3.3523    1.1104    0.0000 C   0  0  0  0  0  0  0  0  0  0  0  0
    2.6378    0.6979    0.0000 C   0  0  0  0  0  0  0  0  0  0  0  0
    1.9233    1.1104    0.0000 N   0  0  0  0  0  0  0  0  0  0  0  0
    1.1387    0.8555    0.0000 C   0  0  0  0  0  0  0  0  0  0  0  0
    0.6538    1.5229    0.0000 C   0  0  0  0  0  0  0  0  0  0  0  0
    1.1387    2.1904    0.0000 C   0  0  0  0  0  0  0  0  0  0  0  0
    1.9233    1.9354    0.0000 C   0  0  0  0  0  0  0  0  0  0  0  0
    2.6378    2.3479    0.0000 C   0  0  0  0  0  0  0  0  0  0  0  0
   -0.1712    1.5229    0.0000 C   0  0  0  0  0  0  0  0  0  0  0  0
   -0.5837    0.8085    0.0000 C   0  0  0  0  0  0  0  0  0  0  0  0
   -1.4087    0.8085    0.0000 C   0  0  0  0  0  0  0  0  0  0  0  0
   -1.8212    1.5229    0.0000 C   0  0  0  0  0  0  0  0  0  0  0  0
   -1.4087    2.2374    0.0000 C   0  0  0  0  0  0  0  0  0  0  0  0
   -0.5837    2.2374    0.0000 C   0  0  0  0  0  0  0  0  0  0  0  0
    0.0768   -0.1006    0.0000 O   0  0  0  0  0  0  0  0  0  0  0  0
    3.3890   -3.7792    0.0000 N   0  0  0  0  0  0  0  0  0  0  0  0
    4.1960   -3.6077    0.0000 C   0  0  0  0  0  0  0  0  0  0  0  0
    3.1341   -4.5638    0.0000 C   0  0  0  0  0  0  0  0  0  0  0  0
  1  2  1  0  0  0  0
  2  3  1  0  0  0  0
  2  4  2  0  0  0  0
  1  5  2  0  0  0  0
  5  6  1  0  0  0  0
  6  7  2  0  0  0  0
  7  8  1  0  0  0  0
  8  9  2  0  0  0  0
  1  9  1  0  0  0  0
 11 12  2  0  0  0  0
 11 13  1  0  0  0  0
 14 15  1  0  0  0  0
 15 16  2  0  0  0  0
 16 17  1  0  0  0  0
 17 18  1  0  0  0  0
 18 19  2  0  0  0  0
 19 20  1  0  0  0  0
 20 21  2  0  0  0  0
 17 21  1  0  0  0  0
 21 22  1  0  0  0  0
 14 22  2  0  0  0  0
 23 24  2  0  0  0  0
 24 25  1  0  0  0  0
 25 26  2  0  0  0  0
 26 27  1  0  0  0  0
 27 28  2  0  0  0  0
 23 28  1  0  0  0  0
 19 23  1  0  0  0  0
 13 18  1  0  0  0  0
 13 29  2  0  0  0  0
 10 11  1  0  0  0  0
  8 10  1  0  0  0  0
 30 31  1  0  0  0  0
 30 32  1  0  0  0  0
  5 30  1  0  0  0  0
M  END
>  <type>
systematic

$$$$
7H-Azeto[1,2- a][1,2,3]triazolo[1,5- c]pyrimidine-5-carboxylic acid, 8,8a-dihydro-8-[(hydroxyphenylacetyl)amino]-4-methyl-7-oxo-, [8 S-[8α(S*),8aβ]]-
  Mrv2401 11022421562D          

 27 30  0  0  1  0            999 V2000
    0.1801   -0.9162    0.0000 C   0  0  0  0  0  0  0  0  0  0  0  0
    1.0045   -0.8855    0.0000 C   0  0  0  0  0  0  0  0  0  0  0  0
    1.6500    0.9812    0.0000 C   0  0  2  0  0  0  0  0  0  0  0  0
    2.0888    0.2826    0.0000 C   0  0  0  0  0  0  0  0  0  0  0  0
    1.3902   -0.1562    0.0000 N   0  0  0  0  0  0  0  0  0  0  0  0
    0.9514    0.5424    0.0000 C   0  0  0  0  0  0  0  0  0  0  0  0
    0.1270    0.5118    0.0000 N   0  0  0  0  0  0  0  0  0  0  0  0
   -0.4475    1.1039    0.0000 N   0  0  0  0  0  0  0  0  0  0  0  0
   -1.1881    0.7406    0.0000 N   0  0  0  0  0  0  0  0  0  0  0  0
   -1.0715   -0.0762    0.0000 C   0  0  0  0  0  0  0  0  0  0  0  0
   -0.2587   -0.2176    0.0000 C   0  0  0  0  0  0  0  0  0  0  0  0
    1.4433   -1.5842    0.0000 C   0  0  0  0  0  0  0  0  0  0  0  0
    1.0577   -2.3135    0.0000 O   0  0  0  0  0  0  0  0  0  0  0  0
    2.2677   -1.5535    0.0000 O   0  0  0  0  0  0  0  0  0  0  0  0
    2.8931    0.0988    0.0000 O   0  0  0  0  0  0  0  0  0  0  0  0
   -0.2055   -1.6455    0.0000 C   0  0  0  0  0  0  0  0  0  0  0  0
    1.8338    1.7855    0.0000 N   0  0  0  0  0  0  0  0  0  0  0  0
    2.6222    2.0285    0.0000 C   0  0  0  0  0  0  0  0  0  0  0  0
    3.2268    1.4672    0.0000 O   0  0  0  0  0  0  0  0  0  0  0  0
    2.8059    2.8328    0.0000 C   0  0  0  0  0  0  0  0  0  0  0  0
    3.5943    3.0758    0.0000 C   0  0  0  0  0  0  0  0  0  0  0  0
    3.7781    3.8801    0.0000 C   0  0  0  0  0  0  0  0  0  0  0  0
    4.5665    4.1231    0.0000 C   0  0  0  0  0  0  0  0  0  0  0  0
    5.1711    3.5618    0.0000 C   0  0  0  0  0  0  0  0  0  0  0  0
    4.9874    2.7575    0.0000 C   0  0  0  0  0  0  0  0  0  0  0  0
    4.1990    2.5145    0.0000 C   0  0  0  0  0  0  0  0  0  0  0  0
    2.2013    3.3940    0.0000 O   0  0  0  0  0  0  0  0  0  0  0  0
  1 11  1  0  0  0  0
  7  6  1  0  0  0  0
  5  2  1  0  0  0  0
  1  2  2  0  0  0  0
  3  4  1  0  0  0  0
  4  5  1  0  0  0  0
  5  6  1  0  0  0  0
  3  6  1  0  0  0  0
  7  8  1  0  0  0  0
  8  9  2  0  0  0  0
  9 10  1  0  0  0  0
 10 11  2  0  0  0  0
  7 11  1  0  0  0  0
 12 13  1  0  0  0  0
 12 14  2  0  0  0  0
  2 12  1  0  0  0  0
  4 15  2  0  0  0  0
  1 16  1  0  0  0  0
 18 19  2  0  0  0  0
 18 20  1  0  0  0  0
 21 22  2  0  0  0  0
 22 23  1  0  0  0  0
 23 24  2  0  0  0  0
 24 25  1  0  0  0  0
 25 26  2  0  0  0  0
 21 26  1  0  0  0  0
 20 21  1  0  0  0  0
 20 27  1  0  0  0  0
 17 18  1  0  0  0  0
  3 17  1  6  0  0  0
M  END
>  <type>
systematic

$$$$
5-Thia-1-azabicyclo[4.2.0]oct-2-ene-2-carboxylic acid, 7-[(hydroxyphenylacetyl)amino]-3-[[[2-(4-morpholinyl)ethoxy]imino]methyl]-8-oxo-, [6 R-[6α,7β(R*)]]-
  Mrv2401 11022421562D          

  0  0  0     0  0            999 V3000
M  V30 BEGIN CTAB
M  V30 COUNTS 34 37 0 0 1
M  V30 BEGIN ATOM
M  V30 1 N 3.1555 -0.2818 0 0
M  V30 2 C 4.4892 0.4882 0 0
M  V30 3 C 5.8229 -0.2818 0 0
M  V30 4 C 5.8229 -1.8218 0 0
M  V30 5 S 4.4892 -2.5918 0 0
M  V30 6 C 3.1555 -1.8218 0 0 CFG=2
M  V30 7 C 1.6155 -1.8218 0 0 CFG=1
M  V30 8 C 1.6155 -0.2818 0 0
M  V30 9 C 4.4892 2.0282 0 0
M  V30 10 O 5.8229 2.7982 0 0
M  V30 11 O 3.1555 2.7982 0 0
M  V30 12 O 0.5266 0.8071 0 0
M  V30 13 C 7.1566 0.4882 0 0
M  V30 14 N 8.4902 -0.2818 0 0
M  V30 15 O 9.8239 0.4882 0 0
M  V30 16 C 11.1576 -0.2818 0 0
M  V30 17 C 12.4913 0.4882 0 0
M  V30 18 C 15.1586 0.4882 0 0
M  V30 19 C 16.4923 -0.2818 0 0
M  V30 20 O 16.4923 -1.8218 0 0
M  V30 21 C 15.1586 -2.5918 0 0
M  V30 22 C 13.825 -1.8218 0 0
M  V30 23 N 13.825 -0.2818 0 0
M  V30 24 N 0.5266 -2.9108 0 0
M  V30 25 C -0.961 -2.5122 0 0
M  V30 26 O -1.3595 -1.0247 0 0
M  V30 27 C -2.0499 -3.6011 0 0
M  V30 28 C -3.5374 -3.2026 0 0
M  V30 29 C -4.6264 -4.2915 0 0
M  V30 30 C -6.1139 -3.8929 0 0
M  V30 31 C -6.5125 -2.4054 0 0
M  V30 32 C -5.4235 -1.3165 0 0
M  V30 33 C -3.936 -1.715 0 0
M  V30 34 O -1.6513 -5.0887 0 0
M  V30 END ATOM
M  V30 BEGIN BOND
M  V30 1 1 1 2
M  V30 2 2 2 3
M  V30 3 1 3 4
M  V30 4 1 4 5
M  V30 5 1 6 5
M  V30 6 1 6 1 CFG=3
M  V30 7 1 6 7
M  V30 8 1 7 8
M  V30 9 1 1 8
M  V30 10 1 9 10
M  V30 11 2 9 11
M  V30 12 1 2 9
M  V30 13 2 8 12
M  V30 14 1 16 17
M  V30 15 1 18 19
M  V30 16 1 19 20
M  V30 17 1 20 21
M  V30 18 1 21 22
M  V30 19 1 22 23
M  V30 20 1 18 23
M  V30 21 1 17 23
M  V30 22 1 15 16
M  V30 23 1 14 15
M  V30 24 2 13 14
M  V30 25 1 13 3 CFG=2
M  V30 26 2 25 26
M  V30 27 1 25 27
M  V30 28 2 28 29
M  V30 29 1 29 30
M  V30 30 2 30 31
M  V30 31 1 31 32
M  V30 32 2 32 33
M  V30 33 1 28 33
M  V30 34 1 27 28
M  V30 35 1 27 34
M  V30 36 1 24 25
M  V30 37 1 7 24 CFG=3
M  V30 END BOND
M  V30 BEGIN COLLECTION
M  V30 MDLV30/STEREL1 ATOMS=(1 7)
M  V30 END COLLECTION
M  V30 END CTAB
M  END
>  <type>
systematic

$$$$
5-Thia-1-azabicyclo[4.2.0]oct-2-ene-2-carboxylic acid, 3-[(acetyloxy)methyl]-7-[[(2-amino-4-thiazolyl)hydroxyacetyl]amino]-8-oxo-, [6 R-(6α,7β)]-
  Mrv2401 11022421582D          

 28 30  0  0  1  0            999 V2000
    1.6905   -0.1510    0.0000 N   0  0  0  0  0  0  0  0  0  0  0  0
    2.4049    0.2615    0.0000 C   0  0  0  0  0  0  0  0  0  0  0  0
    3.1194   -0.1510    0.0000 C   0  0  0  0  0  0  0  0  0  0  0  0
    3.1194   -0.9760    0.0000 C   0  0  0  0  0  0  0  0  0  0  0  0
    2.4049   -1.3885    0.0000 S   0  0  0  0  0  0  0  0  0  0  0  0
    1.6905   -0.9760    0.0000 C   0  0  2  0  0  0  0  0  0  0  0  0
    0.8655   -0.9760    0.0000 C   0  0  2  0  0  0  0  0  0  0  0  0
    0.8655   -0.1510    0.0000 C   0  0  0  0  0  0  0  0  0  0  0  0
    2.4049    1.0865    0.0000 C   0  0  0  0  0  0  0  0  0  0  0  0
    3.1194    1.4990    0.0000 O   0  0  0  0  0  0  0  0  0  0  0  0
    1.6905    1.4990    0.0000 O   0  0  0  0  0  0  0  0  0  0  0  0
    0.2821    0.4324    0.0000 O   0  0  0  0  0  0  0  0  0  0  0  0
    0.2821   -1.5593    0.0000 N   0  0  0  0  0  0  0  0  0  0  0  0
   -0.5148   -1.3458    0.0000 C   0  0  0  0  0  0  0  0  0  0  0  0
   -0.7283   -0.5489    0.0000 O   0  0  0  0  0  0  0  0  0  0  0  0
   -1.0982   -1.9292    0.0000 C   0  0  0  0  0  0  0  0  0  0  0  0
   -0.8846   -2.7261    0.0000 O   0  0  0  0  0  0  0  0  0  0  0  0
   -3.2281   -1.7855    0.0000 S   0  0  0  0  0  0  0  0  0  0  0  0
   -3.0146   -0.9886    0.0000 C   0  0  0  0  0  0  0  0  0  0  0  0
   -2.1907   -0.9455    0.0000 N   0  0  0  0  0  0  0  0  0  0  0  0
   -1.8950   -1.7157    0.0000 C   0  0  0  0  0  0  0  0  0  0  0  0
   -2.5362   -2.2348    0.0000 C   0  0  0  0  0  0  0  0  0  0  0  0
   -3.5338   -0.3475    0.0000 N   0  0  0  0  0  0  0  0  0  0  0  0
    3.8339    0.2615    0.0000 C   0  0  0  0  0  0  0  0  0  0  0  0
    3.8339    1.0865    0.0000 O   0  0  0  0  0  0  0  0  0  0  0  0
    4.5483    1.4990    0.0000 C   0  0  0  0  0  0  0  0  0  0  0  0
    4.5483    2.3240    0.0000 O   0  0  0  0  0  0  0  0  0  0  0  0
    5.2628    1.0865    0.0000 C   0  0  0  0  0  0  0  0  0  0  0  0
  1  2  1  0  0  0  0
  2  3  2  0  0  0  0
  3  4  1  0  0  0  0
  4  5  1  0  0  0  0
  6  5  1  0  0  0  0
  6  1  1  6  0  0  0
  6  7  1  0  0  0  0
  7  8  1  0  0  0  0
  1  8  1  0  0  0  0
  9 10  1  0  0  0  0
  9 11  2  0  0  0  0
  2  9  1  0  0  0  0
  8 12  2  0  0  0  0
 14 15  2  0  0  0  0
 14 16  1  0  0  0  0
 16 17  1  0  0  0  0
 18 19  1  0  0  0  0
 19 20  2  0  0  0  0
 20 21  1  0  0  0  0
 21 22  2  0  0  0  0
 18 22  1  0  0  0  0
 19 23  1  0  0  0  0
 16 21  1  0  0  0  0
 13 14  1  0  0  0  0
  7 13  1  1  0  0  0
 25 26  1  0  0  0  0
 26 27  2  0  0  0  0
 26 28  1  0  0  0  0
 24 25  1  0  0  0  0
  3 24  1  0  0  0  0
M  END
>  <type>
systematic

$$$$
5-Thia-1-azabicyclo[4.2.0]oct-2-ene-2-carboxylic acid, 7-[(hydroxyphenylacetyl)amino]-3-[[[2-(4-morpholinyl)ethoxy]imino]methyl]-8-oxo-, [6 R-(6α,7β)]-
  Mrv2401 11022422122D          

 34 37  0  0  1  0            999 V2000
    1.6905   -0.1510    0.0000 N   0  0  0  0  0  0  0  0  0  0  0  0
    2.4049    0.2615    0.0000 C   0  0  0  0  0  0  0  0  0  0  0  0
    3.1194   -0.1510    0.0000 C   0  0  0  0  0  0  0  0  0  0  0  0
    3.1194   -0.9760    0.0000 C   0  0  0  0  0  0  0  0  0  0  0  0
    2.4049   -1.3885    0.0000 S   0  0  0  0  0  0  0  0  0  0  0  0
    1.6905   -0.9760    0.0000 C   0  0  2  0  0  0  0  0  0  0  0  0
    0.8655   -0.9760    0.0000 C   0  0  2  0  0  0  0  0  0  0  0  0
    0.8655   -0.1510    0.0000 C   0  0  0  0  0  0  0  0  0  0  0  0
    2.4049    1.0865    0.0000 C   0  0  0  0  0  0  0  0  0  0  0  0
    3.1194    1.4990    0.0000 O   0  0  0  0  0  0  0  0  0  0  0  0
    1.6905    1.4990    0.0000 O   0  0  0  0  0  0  0  0  0  0  0  0
    0.2821    0.4324    0.0000 O   0  0  0  0  0  0  0  0  0  0  0  0
    3.8339    0.2615    0.0000 C   0  0  0  0  0  0  0  0  0  0  0  0
    4.5483   -0.1510    0.0000 N   0  0  0  0  0  0  0  0  0  0  0  0
    5.2628    0.2615    0.0000 O   0  0  0  0  0  0  0  0  0  0  0  0
    5.9773   -0.1510    0.0000 C   0  0  0  0  0  0  0  0  0  0  0  0
    6.6918    0.2615    0.0000 C   0  0  0  0  0  0  0  0  0  0  0  0
    8.1207    0.2615    0.0000 C   0  0  0  0  0  0  0  0  0  0  0  0
    8.8352   -0.1510    0.0000 C   0  0  0  0  0  0  0  0  0  0  0  0
    8.8352   -0.9760    0.0000 O   0  0  0  0  0  0  0  0  0  0  0  0
    8.1207   -1.3885    0.0000 C   0  0  0  0  0  0  0  0  0  0  0  0
    7.4062   -0.9760    0.0000 C   0  0  0  0  0  0  0  0  0  0  0  0
    7.4062   -0.1510    0.0000 N   0  0  0  0  0  0  0  0  0  0  0  0
    0.2821   -1.5593    0.0000 N   0  0  0  0  0  0  0  0  0  0  0  0
   -0.5148   -1.3458    0.0000 C   0  0  0  0  0  0  0  0  0  0  0  0
   -0.7283   -0.5489    0.0000 O   0  0  0  0  0  0  0  0  0  0  0  0
   -1.0982   -1.9292    0.0000 C   0  0  0  0  0  0  0  0  0  0  0  0
   -1.8950   -1.7157    0.0000 C   0  0  0  0  0  0  0  0  0  0  0  0
   -2.4784   -2.2990    0.0000 C   0  0  0  0  0  0  0  0  0  0  0  0
   -3.2753   -2.0855    0.0000 C   0  0  0  0  0  0  0  0  0  0  0  0
   -3.4888   -1.2886    0.0000 C   0  0  0  0  0  0  0  0  0  0  0  0
   -2.9055   -0.7052    0.0000 C   0  0  0  0  0  0  0  0  0  0  0  0
   -2.1086   -0.9188    0.0000 C   0  0  0  0  0  0  0  0  0  0  0  0
   -0.8846   -2.7261    0.0000 O   0  0  0  0  0  0  0  0  0  0  0  0
  1  2  1  0  0  0  0
  2  3  2  0  0  0  0
  3  4  1  0  0  0  0
  4  5  1  0  0  0  0
  6  5  1  0  0  0  0
  6  1  1  6  0  0  0
  6  7  1  0  0  0  0
  7  8  1  0  0  0  0
  1  8  1  0  0  0  0
  9 10  1  0  0  0  0
  9 11  2  0  0  0  0
  2  9  1  0  0  0  0
  8 12  2  0  0  0  0
 16 17  1  0  0  0  0
 18 19  1  0  0  0  0
 19 20  1  0  0  0  0
 20 21  1  0  0  0  0
 21 22  1  0  0  0  0
 22 23  1  0  0  0  0
 18 23  1  0  0  0  0
 17 23  1  0  0  0  0
 15 16  1  0  0  0  0
 14 15  1  0  0  0  0
 13 14  2  0  0  0  0
 13  3  1  4  0  0  0
 25 26  2  0  0  0  0
 25 27  1  0  0  0  0
 28 29  2  0  0  0  0
 29 30  1  0  0  0  0
 30 31  2  0  0  0  0
 31 32  1  0  0  0  0
 32 33  2  0  0  0  0
 28 33  1  0  0  0  0
 27 28  1  0  0  0  0
 27 34  1  0  0  0  0
 24 25  1  0  0  0  0
  7 24  1  1  0  0  0
M  END
>  <type>
systematic

$$$$
5-Thia-1-azabicyclo[4.2.0]oct-2-ene-2-carboxylic acid, 7-[[[2-(formylamino)-4-thiazolyl]oxoacetyl]amino]-8-oxo-, (6R-trans)-
  Mrv2401 11022422132D          

 25 27  0  0  1  0            999 V2000
    1.6905   -0.1510    0.0000 N   0  0  0  0  0  0  0  0  0  0  0  0
    2.4049    0.2615    0.0000 C   0  0  0  0  0  0  0  0  0  0  0  0
    3.1194   -0.1510    0.0000 C   0  0  0  0  0  0  0  0  0  0  0  0
    3.1194   -0.9760    0.0000 C   0  0  0  0  0  0  0  0  0  0  0  0
    2.4049   -1.3885    0.0000 S   0  0  0  0  0  0  0  0  0  0  0  0
    1.6905   -0.9760    0.0000 C   0  0  2  0  0  0  0  0  0  0  0  0
    0.8655   -0.9760    0.0000 C   0  0  0  0  0  0  0  0  0  0  0  0
    0.8655   -0.1510    0.0000 C   0  0  0  0  0  0  0  0  0  0  0  0
    2.4049    1.0865    0.0000 C   0  0  0  0  0  0  0  0  0  0  0  0
    3.1194    1.4990    0.0000 O   0  0  0  0  0  0  0  0  0  0  0  0
    1.6905    1.4990    0.0000 O   0  0  0  0  0  0  0  0  0  0  0  0
    0.2821    0.4324    0.0000 O   0  0  0  0  0  0  0  0  0  0  0  0
    0.2821   -1.5593    0.0000 N   0  0  0  0  0  0  0  0  0  0  0  0
    0.4956   -2.3562    0.0000 C   0  0  0  0  0  0  0  0  0  0  0  0
    1.2925   -2.5698    0.0000 O   0  0  0  0  0  0  0  0  0  0  0  0
   -0.0877   -2.9396    0.0000 C   0  0  0  0  0  0  0  0  0  0  0  0
   -0.8846   -2.7261    0.0000 O   0  0  0  0  0  0  0  0  0  0  0  0
    0.8528   -4.8560    0.0000 S   0  0  0  0  0  0  0  0  0  0  0  0
    0.0559   -5.0695    0.0000 C   0  0  0  0  0  0  0  0  0  0  0  0
   -0.3934   -4.3776    0.0000 N   0  0  0  0  0  0  0  0  0  0  0  0
    0.1258   -3.7365    0.0000 C   0  0  0  0  0  0  0  0  0  0  0  0
    0.8960   -4.0321    0.0000 C   0  0  0  0  0  0  0  0  0  0  0  0
   -0.2397   -5.8397    0.0000 N   0  0  0  0  0  0  0  0  0  0  0  0
   -1.0546   -5.9688    0.0000 C   0  0  0  0  0  0  0  0  0  0  0  0
   -1.3502   -6.7390    0.0000 O   0  0  0  0  0  0  0  0  0  0  0  0
  1  2  1  0  0  0  0
  2  3  2  0  0  0  0
  3  4  1  0  0  0  0
  4  5  1  0  0  0  0
  6  5  1  0  0  0  0
  6  1  1  6  0  0  0
  6  7  1  0  0  0  0
  7  8  1  0  0  0  0
  1  8  1  0  0  0  0
  9 10  1  0  0  0  0
  9 11  2  0  0  0  0
  2  9  1  0  0  0  0
  8 12  2  0  0  0  0
 14 15  2  0  0  0  0
 14 16  1  0  0  0  0
 16 17  2  0  0  0  0
 18 19  1  0  0  0  0
 19 20  2  0  0  0  0
 20 21  1  0  0  0  0
 21 22  2  0  0  0  0
 18 22  1  0  0  0  0
 24 25  2  0  0  0  0
 23 24  1  0  0  0  0
 19 23  1  0  0  0  0
 16 21  1  0  0  0  0
 13 14  1  0  0  0  0
  7 13  1  0  0  0  0
M  END
>  <type>
systematic

$$$$
5-Thia-1-azabicyclo[4.2.0]oct-2-ene-2-carboxylic acid, 3-[(3-carboxyphenyl)methyl]-7-[(hydroxyphenylacetyl)amino]-8-oxo-, [6 R-[6α,7β(R*)]]-
  Mrv2401 11022422132D          

  0  0  0     0  0            999 V3000
M  V30 BEGIN CTAB
M  V30 COUNTS 33 36 0 0 1
M  V30 BEGIN ATOM
M  V30 1 N 3.1555 -0.2818 0 0
M  V30 2 C 4.4892 0.4882 0 0
M  V30 3 C 5.8229 -0.2818 0 0
M  V30 4 C 5.8229 -1.8218 0 0
M  V30 5 S 4.4892 -2.5918 0 0
M  V30 6 C 3.1555 -1.8218 0 0 CFG=2
M  V30 7 C 1.6155 -1.8218 0 0 CFG=1
M  V30 8 C 1.6155 -0.2818 0 0
M  V30 9 C 4.4892 2.0282 0 0
M  V30 10 O 5.8229 2.7982 0 0
M  V30 11 O 3.1555 2.7982 0 0
M  V30 12 O 0.5266 0.8071 0 0
M  V30 13 N 0.5266 -2.9108 0 0
M  V30 14 C -0.961 -2.5122 0 0
M  V30 15 O -1.3595 -1.0247 0 0
M  V30 16 C -2.0499 -3.6011 0 0
M  V30 17 C -3.5374 -3.2026 0 0
M  V30 18 C -4.6264 -4.2915 0 0
M  V30 19 C -6.1139 -3.8929 0 0
M  V30 20 C -6.5125 -2.4054 0 0
M  V30 21 C -5.4235 -1.3165 0 0
M  V30 22 C -3.936 -1.715 0 0
M  V30 23 O -1.6513 -5.0887 0 0
M  V30 24 C 7.1566 0.4882 0 0
M  V30 25 C 8.4902 -0.2818 0 0
M  V30 26 C 9.8239 0.4882 0 0
M  V30 27 C 11.1576 -0.2818 0 0
M  V30 28 C 11.1576 -1.8218 0 0
M  V30 29 C 9.8239 -2.5918 0 0
M  V30 30 C 8.4902 -1.8218 0 0
M  V30 31 C 12.4913 0.4882 0 0
M  V30 32 O 12.4913 2.0282 0 0
M  V30 33 O 13.825 -0.2818 0 0
M  V30 END ATOM
M  V30 BEGIN BOND
M  V30 1 1 1 2
M  V30 2 2 2 3
M  V30 3 1 3 4
M  V30 4 1 4 5
M  V30 5 1 6 5
M  V30 6 1 6 1 CFG=3
M  V30 7 1 6 7
M  V30 8 1 7 8
M  V30 9 1 1 8
M  V30 10 1 9 10
M  V30 11 2 9 11
M  V30 12 1 2 9
M  V30 13 2 8 12
M  V30 14 2 14 15
M  V30 15 1 14 16
M  V30 16 2 17 18
M  V30 17 1 18 19
M  V30 18 2 19 20
M  V30 19 1 20 21
M  V30 20 2 21 22
M  V30 21 1 17 22
M  V30 22 1 16 17
M  V30 23 1 16 23
M  V30 24 1 13 14
M  V30 25 1 7 13 CFG=3
M  V30 26 2 25 26
M  V30 27 1 26 27
M  V30 28 2 27 28
M  V30 29 1 28 29
M  V30 30 2 29 30
M  V30 31 1 25 30
M  V30 32 1 31 32
M  V30 33 2 31 33
M  V30 34 1 27 31
M  V30 35 1 24 25
M  V30 36 1 3 24
M  V30 END BOND
M  V30 BEGIN COLLECTION
M  V30 MDLV30/STEREL1 ATOMS=(1 7)
M  V30 END COLLECTION
M  V30 END CTAB
M  END
>  <type>
systematic

$$$$
5-Thia-1-azabicyclo[4.2.0]oct-2-ene-2-carboxylic acid, 7-[(hydroxyphenylacetyl)amino]-8-oxo-3-[2-(2-pyridinylthio)ethyl]-,[6 R-[6α,7β(R*)]]-
  Mrv2401 11022422142D          

  0  0  0     0  0            999 V3000
M  V30 BEGIN CTAB
M  V30 COUNTS 32 35 0 0 1
M  V30 BEGIN ATOM
M  V30 1 N 3.1555 -0.2818 0 0
M  V30 2 C 4.4892 0.4882 0 0
M  V30 3 C 5.8229 -0.2818 0 0
M  V30 4 C 5.8229 -1.8218 0 0
M  V30 5 S 4.4892 -2.5918 0 0
M  V30 6 C 3.1555 -1.8218 0 0 CFG=2
M  V30 7 C 1.6155 -1.8218 0 0 CFG=1
M  V30 8 C 1.6155 -0.2818 0 0
M  V30 9 C 4.4892 2.0282 0 0
M  V30 10 O 5.8229 2.7982 0 0
M  V30 11 O 3.1555 2.7982 0 0
M  V30 12 C 7.1566 0.4882 0 0
M  V30 13 C 8.4902 -0.2818 0 0
M  V30 14 S 9.8239 0.4882 0 0
M  V30 15 N 11.1576 -1.8218 0 0
M  V30 16 C 11.1576 -0.2818 0 0
M  V30 17 C 12.4913 0.4882 0 0
M  V30 18 C 13.825 -0.2818 0 0
M  V30 19 C 13.825 -1.8218 0 0
M  V30 20 C 12.4913 -2.5918 0 0
M  V30 21 O 0.5266 0.8071 0 0
M  V30 22 N 0.5266 -2.9108 0 0
M  V30 23 C -0.961 -2.5122 0 0
M  V30 24 O -1.3595 -1.0247 0 0
M  V30 25 C -2.0499 -3.6011 0 0
M  V30 26 C -3.5374 -3.2026 0 0
M  V30 27 C -4.6264 -4.2915 0 0
M  V30 28 C -6.1139 -3.8929 0 0
M  V30 29 C -6.5125 -2.4054 0 0
M  V30 30 C -5.4235 -1.3165 0 0
M  V30 31 C -3.936 -1.715 0 0
M  V30 32 O -1.6513 -5.0887 0 0
M  V30 END ATOM
M  V30 BEGIN BOND
M  V30 1 1 1 2
M  V30 2 2 2 3
M  V30 3 1 3 4
M  V30 4 1 4 5
M  V30 5 1 6 5
M  V30 6 1 6 1 CFG=3
M  V30 7 1 6 7
M  V30 8 1 7 8
M  V30 9 1 1 8
M  V30 10 1 9 10
M  V30 11 2 9 11
M  V30 12 1 2 9
M  V30 13 1 12 13
M  V30 14 2 15 16
M  V30 15 1 16 17
M  V30 16 2 17 18
M  V30 17 1 18 19
M  V30 18 2 19 20
M  V30 19 1 15 20
M  V30 20 1 14 16
M  V30 21 1 13 14
M  V30 22 1 3 12
M  V30 23 2 8 21
M  V30 24 2 23 24
M  V30 25 1 23 25
M  V30 26 2 26 27
M  V30 27 1 27 28
M  V30 28 2 28 29
M  V30 29 1 29 30
M  V30 30 2 30 31
M  V30 31 1 26 31
M  V30 32 1 25 26
M  V30 33 1 25 32
M  V30 34 1 22 23
M  V30 35 1 7 22 CFG=3
M  V30 END BOND
M  V30 BEGIN COLLECTION
M  V30 MDLV30/STEREL1 ATOMS=(1 7)
M  V30 END COLLECTION
M  V30 END CTAB
M  END
>  <type>
systematic

$$$$

  Mrv2401 11022422242D          

 30 33  0  0  1  0            999 V2000
    1.6905   -0.1510    0.0000 N   0  0  0  0  0  0  0  0  0  0  0  0
    2.4049    0.2615    0.0000 C   0  0  0  0  0  0  0  0  0  0  0  0
    3.1194   -0.1510    0.0000 C   0  0  0  0  0  0  0  0  0  0  0  0
    3.1194   -0.9760    0.0000 C   0  0  0  0  0  0  0  0  0  0  0  0
    2.4049   -1.3885    0.0000 S   0  0  0  0  0  0  0  0  0  0  0  0
    1.6905   -0.9760    0.0000 C   0  0  2  0  0  0  0  0  0  0  0  0
    0.8655   -0.9760    0.0000 C   0  0  0  0  0  0  0  0  0  0  0  0
    0.8655   -0.1510    0.0000 C   0  0  0  0  0  0  0  0  0  0  0  0
    2.4049    1.0865    0.0000 C   0  0  0  0  0  0  0  0  0  0  0  0
    3.1194    1.4990    0.0000 O   0  0  0  0  0  0  0  0  0  0  0  0
    1.6905    1.4990    0.0000 O   0  0  0  0  0  0  0  0  0  0  0  0
    0.2821    0.4324    0.0000 O   0  0  0  0  0  0  0  0  0  0  0  0
    0.2821   -1.5593    0.0000 N   0  0  0  0  0  0  0  0  0  0  0  0
    0.4956   -2.3562    0.0000 C   0  0  0  0  0  0  0  0  0  0  0  0
    1.2925   -2.5698    0.0000 O   0  0  0  0  0  0  0  0  0  0  0  0
   -0.0877   -2.9396    0.0000 C   0  0  0  0  0  0  0  0  0  0  0  0
   -0.8846   -2.7261    0.0000 O   0  0  0  0  0  0  0  0  0  0  0  0
    0.8528   -4.8560    0.0000 C   0  0  0  0  0  0  0  0  0  0  0  0
    0.0559   -5.0695    0.0000 C   0  0  0  0  0  0  0  0  0  0  0  0
   -0.3934   -4.3776    0.0000 C   0  0  0  0  0  0  0  0  0  0  0  0
    0.1258   -3.7365    0.0000 C   0  0  0  0  0  0  0  0  0  0  0  0
    0.8960   -4.0321    0.0000 S   0  0  0  0  0  0  0  0  0  0  0  0
    3.8339    0.2615    0.0000 C   0  0  0  0  0  0  0  0  0  0  0  0
    4.5483   -0.1510    0.0000 N   0  0  0  0  0  0  0  0  0  0  0  0
    5.2628    0.2615    0.0000 C   0  0  0  0  0  0  0  0  0  0  0  0
    5.9773   -0.1510    0.0000 C   0  0  0  0  0  0  0  0  0  0  0  0
    6.6918    0.2615    0.0000 C   0  0  0  0  0  0  0  0  0  0  0  0
    6.6918    1.0865    0.0000 C   0  0  0  0  0  0  0  0  0  0  0  0
    5.9773    1.4990    0.0000 C   0  0  0  0  0  0  0  0  0  0  0  0
    5.2628    1.0865    0.0000 C   0  0  0  0  0  0  0  0  0  0  0  0
  1  2  1  0  0  0  0
  2  3  2  0  0  0  0
  3  4  1  0  0  0  0
  4  5  1  0  0  0  0
  6  5  1  0  0  0  0
  6  1  1  6  0  0  0
  6  7  1  0  0  0  0
  7  8  1  0  0  0  0
  1  8  1  0  0  0  0
  9 10  1  0  0  0  0
  9 11  2  0  0  0  0
  2  9  1  0  0  0  0
  8 12  2  0  0  0  0
 14 15  2  0  0  0  0
 14 16  1  0  0  0  0
 16 17  1  0  0  0  0
 18 19  2  0  0  0  0
 19 20  1  0  0  0  0
 20 21  2  0  0  0  0
 21 22  1  0  0  0  0
 18 22  1  0  0  0  0
 16 21  1  0  0  0  0
 13 14  1  0  0  0  0
  7 13  1  0  0  0  0
  3 23  1  0  0  0  0
 23 24  1  0  0  0  0
 24 25  3  0  0  0  0
 26 27  2  0  0  0  0
 27 28  1  0  0  0  0
 28 29  2  0  0  0  0
 29 30  1  0  0  0  0
 25 26  1  0  0  0  0
 25 30  2  0  0  0  0
M  END
>  <type>
systematic

$$$$
5-Thia-1-azabicyclo[4.2.0]oct-2-ene-2-carboxylic acid, 3-[(acetyloxy)methyl]-7-[[(2,3-dihydro-2-imino-3-methoxy-4-thiazolyl)hydroxyacetyl]amino]-8-oxo-,[6 R-(6α,7β)]-
  Mrv2401 11022422262D          

 30 32  0  0  1  0            999 V2000
    1.6905   -0.1510    0.0000 N   0  0  0  0  0  0  0  0  0  0  0  0
    2.4049    0.2615    0.0000 C   0  0  0  0  0  0  0  0  0  0  0  0
    3.1194   -0.1510    0.0000 C   0  0  0  0  0  0  0  0  0  0  0  0
    3.1194   -0.9760    0.0000 C   0  0  0  0  0  0  0  0  0  0  0  0
    2.4049   -1.3885    0.0000 S   0  0  0  0  0  0  0  0  0  0  0  0
    1.6905   -0.9760    0.0000 C   0  0  2  0  0  0  0  0  0  0  0  0
    0.8655   -0.9760    0.0000 C   0  0  2  0  0  0  0  0  0  0  0  0
    0.8655   -0.1510    0.0000 C   0  0  0  0  0  0  0  0  0  0  0  0
    2.4049    1.0865    0.0000 C   0  0  0  0  0  0  0  0  0  0  0  0
    3.1194    1.4990    0.0000 O   0  0  0  0  0  0  0  0  0  0  0  0
    1.6905    1.4990    0.0000 O   0  0  0  0  0  0  0  0  0  0  0  0
    0.2821    0.4324    0.0000 O   0  0  0  0  0  0  0  0  0  0  0  0
    0.2821   -1.5593    0.0000 N   0  0  0  0  0  0  0  0  0  0  0  0
   -0.5148   -1.3458    0.0000 C   0  0  0  0  0  0  0  0  0  0  0  0
   -0.7283   -0.5489    0.0000 O   0  0  0  0  0  0  0  0  0  0  0  0
   -1.0982   -1.9292    0.0000 C   0  0  0  0  0  0  0  0  0  0  0  0
   -0.8846   -2.7261    0.0000 O   0  0  0  0  0  0  0  0  0  0  0  0
   -3.2281   -1.7855    0.0000 S   0  0  0  0  0  0  0  0  0  0  0  0
   -3.0146   -0.9886    0.0000 C   0  0  0  0  0  0  0  0  0  0  0  0
   -2.1907   -0.9455    0.0000 N   0  0  0  0  0  0  0  0  0  0  0  0
   -1.8950   -1.7157    0.0000 C   0  0  0  0  0  0  0  0  0  0  0  0
   -2.5362   -2.2348    0.0000 C   0  0  0  0  0  0  0  0  0  0  0  0
   -1.7414   -0.2536    0.0000 O   0  0  0  0  0  0  0  0  0  0  0  0
   -2.1159    0.4815    0.0000 C   0  0  0  0  0  0  0  0  0  0  0  0
   -3.5338   -0.3475    0.0000 N   0  0  0  0  0  0  0  0  0  0  0  0
    3.8339    0.2615    0.0000 C   0  0  0  0  0  0  0  0  0  0  0  0
    3.8339    1.0865    0.0000 O   0  0  0  0  0  0  0  0  0  0  0  0
    4.5483    1.4990    0.0000 C   0  0  0  0  0  0  0  0  0  0  0  0
    4.5483    2.3240    0.0000 O   0  0  0  0  0  0  0  0  0  0  0  0
    5.2628    1.0865    0.0000 C   0  0  0  0  0  0  0  0  0  0  0  0
  1  2  1  0  0  0  0
  2  3  2  0  0  0  0
  3  4  1  0  0  0  0
  4  5  1  0  0  0  0
  6  5  1  0  0  0  0
  6  1  1  6  0  0  0
  6  7  1  0  0  0  0
  7  8  1  0  0  0  0
  1  8  1  0  0  0  0
  9 10  1  0  0  0  0
  9 11  2  0  0  0  0
  2  9  1  0  0  0  0
  8 12  2  0  0  0  0
 14 15  2  0  0  0  0
 14 16  1  0  0  0  0
 16 17  1  0  0  0  0
 18 19  1  0  0  0  0
 19 20  1  0  0  0  0
 20 21  1  0  0  0  0
 21 22  2  0  0  0  0
 18 22  1  0  0  0  0
 23 24  1  0  0  0  0
 20 23  1  0  0  0  0
 19 25  2  0  0  0  0
 16 21  1  0  0  0  0
 13 14  1  0  0  0  0
  7 13  1  1  0  0  0
 27 28  1  0  0  0  0
 28 29  2  0  0  0  0
 28 30  1  0  0  0  0
 26 27  1  0  0  0  0
  3 26  1  0  0  0  0
M  END
>  <type>
systematic

$$$$
5-Thia-1-azabicyclo[4.2.0]oct-2-ene-2-carboxylic acid, 7-[[(2-amino-4-thiazolyl)oxoacetyl]amino]-3-ethenyl-8-oxo-, (6R-trans)-
  Mrv2401 11022422272D          

 25 27  0  0  1  0            999 V2000
    1.6905   -0.1510    0.0000 N   0  0  0  0  0  0  0  0  0  0  0  0
    2.4049    0.2615    0.0000 C   0  0  0  0  0  0  0  0  0  0  0  0
    3.1194   -0.1510    0.0000 C   0  0  0  0  0  0  0  0  0  0  0  0
    3.1194   -0.9760    0.0000 C   0  0  0  0  0  0  0  0  0  0  0  0
    2.4049   -1.3885    0.0000 S   0  0  0  0  0  0  0  0  0  0  0  0
    1.6905   -0.9760    0.0000 C   0  0  2  0  0  0  0  0  0  0  0  0
    0.8655   -0.9760    0.0000 C   0  0  0  0  0  0  0  0  0  0  0  0
    0.8655   -0.1510    0.0000 C   0  0  0  0  0  0  0  0  0  0  0  0
    2.4049    1.0865    0.0000 C   0  0  0  0  0  0  0  0  0  0  0  0
    3.1194    1.4990    0.0000 O   0  0  0  0  0  0  0  0  0  0  0  0
    1.6905    1.4990    0.0000 O   0  0  0  0  0  0  0  0  0  0  0  0
    0.2821    0.4324    0.0000 O   0  0  0  0  0  0  0  0  0  0  0  0
    3.8339    0.2615    0.0000 C   0  0  0  0  0  0  0  0  0  0  0  0
    4.5483   -0.1510    0.0000 C   0  0  0  0  0  0  0  0  0  0  0  0
    0.2821   -1.5593    0.0000 N   0  0  0  0  0  0  0  0  0  0  0  0
    0.4956   -2.3562    0.0000 C   0  0  0  0  0  0  0  0  0  0  0  0
    1.2925   -2.5698    0.0000 O   0  0  0  0  0  0  0  0  0  0  0  0
   -0.0877   -2.9396    0.0000 C   0  0  0  0  0  0  0  0  0  0  0  0
   -0.8846   -2.7261    0.0000 O   0  0  0  0  0  0  0  0  0  0  0  0
    0.8528   -4.8560    0.0000 S   0  0  0  0  0  0  0  0  0  0  0  0
    0.0559   -5.0695    0.0000 C   0  0  0  0  0  0  0  0  0  0  0  0
   -0.3934   -4.3776    0.0000 N   0  0  0  0  0  0  0  0  0  0  0  0
    0.1258   -3.7365    0.0000 C   0  0  0  0  0  0  0  0  0  0  0  0
    0.8960   -4.0321    0.0000 C   0  0  0  0  0  0  0  0  0  0  0  0
   -0.2397   -5.8397    0.0000 N   0  0  0  0  0  0  0  0  0  0  0  0
  1  2  1  0  0  0  0
  2  3  2  0  0  0  0
  3  4  1  0  0  0  0
  4  5  1  0  0  0  0
  6  5  1  0  0  0  0
  6  1  1  6  0  0  0
  6  7  1  0  0  0  0
  7  8  1  0  0  0  0
  1  8  1  0  0  0  0
  9 10  1  0  0  0  0
  9 11  2  0  0  0  0
  2  9  1  0  0  0  0
  8 12  2  0  0  0  0
 13 14  2  0  0  0  0
  3 13  1  0  0  0  0
 16 17  2  0  0  0  0
 16 18  1  0  0  0  0
 18 19  2  0  0  0  0
 20 21  1  0  0  0  0
 21 22  2  0  0  0  0
 22 23  1  0  0  0  0
 23 24  2  0  0  0  0
 20 24  1  0  0  0  0
 21 25  1  0  0  0  0
 18 23  1  0  0  0  0
 15 16  1  0  0  0  0
  7 15  1  0  0  0  0
M  END
>  <type>
systematic

$$$$
5-Thia-1-azabicyclo[4.2.0]oct-2-ene-2-carboxylic acid, 7-[[(2-amino-5-thiazolyl)oxoacetyl]amino]-3-ethenyl-8-oxo-, (6R-trans)-
  Mrv2401 11022422272D          

 25 27  0  0  1  0            999 V2000
    1.6905   -0.1510    0.0000 N   0  0  0  0  0  0  0  0  0  0  0  0
    2.4049    0.2615    0.0000 C   0  0  0  0  0  0  0  0  0  0  0  0
    3.1194   -0.1510    0.0000 C   0  0  0  0  0  0  0  0  0  0  0  0
    3.1194   -0.9760    0.0000 C   0  0  0  0  0  0  0  0  0  0  0  0
    2.4049   -1.3885    0.0000 S   0  0  0  0  0  0  0  0  0  0  0  0
    1.6905   -0.9760    0.0000 C   0  0  2  0  0  0  0  0  0  0  0  0
    0.8655   -0.9760    0.0000 C   0  0  0  0  0  0  0  0  0  0  0  0
    0.8655   -0.1510    0.0000 C   0  0  0  0  0  0  0  0  0  0  0  0
    2.4049    1.0865    0.0000 C   0  0  0  0  0  0  0  0  0  0  0  0
    3.1194    1.4990    0.0000 O   0  0  0  0  0  0  0  0  0  0  0  0
    1.6905    1.4990    0.0000 O   0  0  0  0  0  0  0  0  0  0  0  0
    0.2821    0.4324    0.0000 O   0  0  0  0  0  0  0  0  0  0  0  0
    3.8339    0.2615    0.0000 C   0  0  0  0  0  0  0  0  0  0  0  0
    4.5483   -0.1510    0.0000 C   0  0  0  0  0  0  0  0  0  0  0  0
    0.2821   -1.5593    0.0000 N   0  0  0  0  0  0  0  0  0  0  0  0
   -0.5148   -1.3458    0.0000 C   0  0  0  0  0  0  0  0  0  0  0  0
   -0.7283   -0.5489    0.0000 O   0  0  0  0  0  0  0  0  0  0  0  0
   -1.0982   -1.9292    0.0000 C   0  0  0  0  0  0  0  0  0  0  0  0
   -0.8846   -2.7261    0.0000 O   0  0  0  0  0  0  0  0  0  0  0  0
   -2.5362   -2.2348    0.0000 S   0  0  0  0  0  0  0  0  0  0  0  0
   -3.2281   -1.7855    0.0000 C   0  0  0  0  0  0  0  0  0  0  0  0
   -3.0146   -0.9886    0.0000 N   0  0  0  0  0  0  0  0  0  0  0  0
   -2.1907   -0.9455    0.0000 C   0  0  0  0  0  0  0  0  0  0  0  0
   -1.8950   -1.7157    0.0000 C   0  0  0  0  0  0  0  0  0  0  0  0
   -3.9983   -2.0812    0.0000 N   0  0  0  0  0  0  0  0  0  0  0  0
  1  2  1  0  0  0  0
  2  3  2  0  0  0  0
  3  4  1  0  0  0  0
  4  5  1  0  0  0  0
  6  5  1  0  0  0  0
  6  1  1  6  0  0  0
  6  7  1  0  0  0  0
  7  8  1  0  0  0  0
  1  8  1  0  0  0  0
  9 10  1  0  0  0  0
  9 11  2  0  0  0  0
  2  9  1  0  0  0  0
  8 12  2  0  0  0  0
 13 14  2  0  0  0  0
  3 13  1  0  0  0  0
 16 17  2  0  0  0  0
 16 18  1  0  0  0  0
 18 19  2  0  0  0  0
 20 21  1  0  0  0  0
 21 22  2  0  0  0  0
 22 23  1  0  0  0  0
 23 24  2  0  0  0  0
 20 24  1  0  0  0  0
 21 25  1  0  0  0  0
 18 24  1  0  0  0  0
 15 16  1  0  0  0  0
  7 15  1  0  0  0  0
M  END
>  <type>
systematic

$$$$

  Mrv2401 11022422332D          

 27 29  0  0  1  0            999 V2000
    1.6905   -0.1510    0.0000 N   0  0  0  0  0  0  0  0  0  0  0  0
    2.4049    0.2615    0.0000 C   0  0  0  0  0  0  0  0  0  0  0  0
    3.1194   -0.1510    0.0000 C   0  0  0  0  0  0  0  0  0  0  0  0
    3.1194   -0.9760    0.0000 C   0  0  0  0  0  0  0  0  0  0  0  0
    2.4049   -1.3885    0.0000 S   0  0  0  0  0  0  0  0  0  0  0  0
    1.6905   -0.9760    0.0000 C   0  0  2  0  0  0  0  0  0  0  0  0
    0.8655   -0.9760    0.0000 C   0  0  0  0  0  0  0  0  0  0  0  0
    0.8655   -0.1510    0.0000 C   0  0  0  0  0  0  0  0  0  0  0  0
    2.4049    1.0865    0.0000 C   0  0  0  0  0  0  0  0  0  0  0  0
    3.1194    1.4990    0.0000 O   0  0  0  0  0  0  0  0  0  0  0  0
    1.6905    1.4990    0.0000 O   0  0  0  0  0  0  0  0  0  0  0  0
    0.2821    0.4324    0.0000 O   0  0  0  0  0  0  0  0  0  0  0  0
    3.8339    0.2615    0.0000 C   0  0  0  0  0  0  0  0  0  0  0  0
    4.5483   -0.1510    0.0000 O   0  0  0  0  0  0  0  0  0  0  0  0
    0.2821   -1.5593    0.0000 N   0  0  0  0  0  0  0  0  0  0  0  0
   -0.5148   -1.3458    0.0000 C   0  0  0  0  0  0  0  0  0  0  0  0
   -0.7283   -0.5489    0.0000 O   0  0  0  0  0  0  0  0  0  0  0  0
   -1.0982   -1.9292    0.0000 C   0  0  0  0  0  0  0  0  0  0  0  0
   -0.8846   -2.7261    0.0000 O   0  0  0  0  0  0  0  0  0  0  0  0
   -2.5362   -2.2348    0.0000 O   0  0  0  0  0  0  0  0  0  0  0  0
   -3.2281   -1.7855    0.0000 C   0  0  0  0  0  0  0  0  0  0  0  0
   -3.0146   -0.9886    0.0000 C   0  0  0  0  0  0  0  0  0  0  0  0
   -2.1907   -0.9455    0.0000 C   0  0  0  0  0  0  0  0  0  0  0  0
   -1.8950   -1.7157    0.0000 C   0  0  0  0  0  0  0  0  0  0  0  0
    5.2628    0.2615    0.0000 C   0  0  0  0  0  0  0  0  0  0  0  0
    5.9773   -0.1510    0.0000 O   0  0  0  0  0  0  0  0  0  0  0  0
    5.2628    1.0865    0.0000 N   0  0  0  0  0  0  0  0  0  0  0  0
  1  2  1  0  0  0  0
  2  3  2  0  0  0  0
  3  4  1  0  0  0  0
  4  5  1  0  0  0  0
  6  5  1  0  0  0  0
  6  1  1  6  0  0  0
  6  7  1  0  0  0  0
  7  8  1  0  0  0  0
  1  8  1  0  0  0  0
  9 10  1  0  0  0  0
  9 11  2  0  0  0  0
  2  9  1  0  0  0  0
  8 12  2  0  0  0  0
 13 14  1  0  0  0  0
  3 13  1  0  0  0  0
 16 17  2  0  0  0  0
 16 18  1  0  0  0  0
 18 19  2  0  0  0  0
 20 21  1  0  0  0  0
 21 22  2  0  0  0  0
 22 23  1  0  0  0  0
 23 24  2  0  0  0  0
 20 24  1  0  0  0  0
 18 24  1  0  0  0  0
 15 16  1  0  0  0  0
  7 15  1  0  0  0  0
 14 25  1  0  0  0  0
 25 26  2  0  0  0  0
 25 27  1  0  0  0  0
M  END
>  <type>
systematic

$$$$
5-[[2-[1-[(3-Fluorophenyl)methyl]-1H-indol-3-yl]-2-oxoacetyl]amino]-1H-1,2,4-triazole-3-carboxylic acid
  Mrv2401 11022422332D          

 30 33  0  0  0  0            999 V2000
    1.5614    3.5719    0.0000 N   0  0  0  0  0  0  0  0  0  0  0  0
    2.2759    3.9844    0.0000 N   0  0  0  0  0  0  0  0  0  0  0  0
    2.8889    3.4324    0.0000 C   0  0  0  0  0  0  0  0  0  0  0  0
    2.5534    2.6787    0.0000 N   0  0  0  0  0  0  0  0  0  0  0  0
    1.7329    2.7649    0.0000 C   0  0  0  0  0  0  0  0  0  0  0  0
    3.6959    3.6039    0.0000 C   0  0  0  0  0  0  0  0  0  0  0  0
    3.9509    4.3885    0.0000 O   0  0  0  0  0  0  0  0  0  0  0  0
    4.2480    2.9908    0.0000 O   0  0  0  0  0  0  0  0  0  0  0  0
    1.1809    2.1518    0.0000 N   0  0  0  0  0  0  0  0  0  0  0  0
    1.4358    1.3672    0.0000 C   0  0  0  0  0  0  0  0  0  0  0  0
    2.2428    1.1957    0.0000 O   0  0  0  0  0  0  0  0  0  0  0  0
    0.8838    0.7541    0.0000 C   0  0  0  0  0  0  0  0  0  0  0  0
    0.0768    0.9256    0.0000 O   0  0  0  0  0  0  0  0  0  0  0  0
    0.6538   -0.6979    0.0000 C   0  0  0  0  0  0  0  0  0  0  0  0
    1.1387   -0.0305    0.0000 C   0  0  0  0  0  0  0  0  0  0  0  0
    1.9233   -0.2854    0.0000 C   0  0  0  0  0  0  0  0  0  0  0  0
    2.6378    0.1271    0.0000 C   0  0  0  0  0  0  0  0  0  0  0  0
    3.3523   -0.2854    0.0000 C   0  0  0  0  0  0  0  0  0  0  0  0
    3.3523   -1.1104    0.0000 C   0  0  0  0  0  0  0  0  0  0  0  0
    2.6378   -1.5229    0.0000 C   0  0  0  0  0  0  0  0  0  0  0  0
    1.9233   -1.1104    0.0000 C   0  0  0  0  0  0  0  0  0  0  0  0
    1.1387   -1.3654    0.0000 N   0  0  0  0  0  0  0  0  0  0  0  0
    0.8838   -2.1500    0.0000 C   0  0  0  0  0  0  0  0  0  0  0  0
    0.0768   -2.3215    0.0000 C   0  0  0  0  0  0  0  0  0  0  0  0
   -0.1781   -3.1062    0.0000 C   0  0  0  0  0  0  0  0  0  0  0  0
   -0.9851   -3.2777    0.0000 C   0  0  0  0  0  0  0  0  0  0  0  0
   -1.5371   -2.6646    0.0000 C   0  0  0  0  0  0  0  0  0  0  0  0
   -1.2822   -1.8800    0.0000 C   0  0  0  0  0  0  0  0  0  0  0  0
   -0.4752   -1.7084    0.0000 C   0  0  0  0  0  0  0  0  0  0  0  0
   -1.2400   -4.0623    0.0000 F   0  0  0  0  0  0  0  0  0  0  0  0
  1  2  1  0  0  0  0
  2  3  2  0  0  0  0
  3  4  1  0  0  0  0
  4  5  2  0  0  0  0
  1  5  1  0  0  0  0
  6  7  1  0  0  0  0
  6  8  2  0  0  0  0
  3  6  1  0  0  0  0
 10 11  2  0  0  0  0
 10 12  1  0  0  0  0
 12 13  2  0  0  0  0
 14 15  2  0  0  0  0
 15 16  1  0  0  0  0
 16 17  1  0  0  0  0
 17 18  2  0  0  0  0
 18 19  1  0  0  0  0
 19 20  2  0  0  0  0
 20 21  1  0  0  0  0
 16 21  2  0  0  0  0
 21 22  1  0  0  0  0
 14 22  1  0  0  0  0
 24 25  2  0  0  0  0
 25 26  1  0  0  0  0
 26 27  2  0  0  0  0
 27 28  1  0  0  0  0
 28 29  2  0  0  0  0
 24 29  1  0  0  0  0
 26 30  1  0  0  0  0
 23 24  1  0  0  0  0
 22 23  1  0  0  0  0
 12 15  1  0  0  0  0
  9 10  1  0  0  0  0
  5  9  1  0  0  0  0
M  END
>  <type>
systematic

$$$$
(6R,7R)-7-[[2-(2-Amino-5-thiazolyl)-2-oxoacetyl]amino]-3-(hydroxymethyl)-8-oxo-5-thia-1-azabicyclo[4.2.0]oct-2-ene-2-carboxylic acid
  Mrv2401 11022422342D          

 25 27  0  0  1  0            999 V2000
    1.6905   -0.1510    0.0000 N   0  0  0  0  0  0  0  0  0  0  0  0
    2.4049    0.2615    0.0000 C   0  0  0  0  0  0  0  0  0  0  0  0
    3.1194   -0.1510    0.0000 C   0  0  0  0  0  0  0  0  0  0  0  0
    3.1194   -0.9760    0.0000 C   0  0  0  0  0  0  0  0  0  0  0  0
    2.4049   -1.3885    0.0000 S   0  0  0  0  0  0  0  0  0  0  0  0
    1.6905   -0.9760    0.0000 C   0  0  2  0  0  0  0  0  0  0  0  0
    0.8655   -0.9760    0.0000 C   0  0  1  0  0  0  0  0  0  0  0  0
    0.8655   -0.1510    0.0000 C   0  0  0  0  0  0  0  0  0  0  0  0
    2.4049    1.0865    0.0000 C   0  0  0  0  0  0  0  0  0  0  0  0
    3.1194    1.4990    0.0000 O   0  0  0  0  0  0  0  0  0  0  0  0
    1.6905    1.4990    0.0000 O   0  0  0  0  0  0  0  0  0  0  0  0
    0.2821    0.4324    0.0000 O   0  0  0  0  0  0  0  0  0  0  0  0
    3.8339    0.2615    0.0000 C   0  0  0  0  0  0  0  0  0  0  0  0
    4.5483   -0.1510    0.0000 O   0  0  0  0  0  0  0  0  0  0  0  0
    0.2821   -1.5593    0.0000 N   0  0  0  0  0  0  0  0  0  0  0  0
   -0.5148   -1.3458    0.0000 C   0  0  0  0  0  0  0  0  0  0  0  0
   -0.7283   -0.5489    0.0000 O   0  0  0  0  0  0  0  0  0  0  0  0
   -1.0982   -1.9292    0.0000 C   0  0  0  0  0  0  0  0  0  0  0  0
   -0.8846   -2.7261    0.0000 O   0  0  0  0  0  0  0  0  0  0  0  0
   -2.5362   -2.2348    0.0000 S   0  0  0  0  0  0  0  0  0  0  0  0
   -3.2281   -1.7855    0.0000 C   0  0  0  0  0  0  0  0  0  0  0  0
   -3.0146   -0.9886    0.0000 N   0  0  0  0  0  0  0  0  0  0  0  0
   -2.1907   -0.9455    0.0000 C   0  0  0  0  0  0  0  0  0  0  0  0
   -1.8950   -1.7157    0.0000 C   0  0  0  0  0  0  0  0  0  0  0  0
   -3.9983   -2.0812    0.0000 N   0  0  0  0  0  0  0  0  0  0  0  0
  1  2  1  0  0  0  0
  2  3  2  0  0  0  0
  3  4  1  0  0  0  0
  4  5  1  0  0  0  0
  6  5  1  0  0  0  0
  6  1  1  6  0  0  0
  6  7  1  0  0  0  0
  7  8  1  0  0  0  0
  1  8  1  0  0  0  0
  9 10  1  0  0  0  0
  9 11  2  0  0  0  0
  2  9  1  0  0  0  0
  8 12  2  0  0  0  0
 13 14  1  0  0  0  0
  3 13  1  0  0  0  0
 16 17  2  0  0  0  0
 16 18  1  0  0  0  0
 18 19  2  0  0  0  0
 20 21  1  0  0  0  0
 21 22  2  0  0  0  0
 22 23  1  0  0  0  0
 23 24  2  0  0  0  0
 20 24  1  0  0  0  0
 21 25  1  0  0  0  0
 18 24  1  0  0  0  0
 15 16  1  0  0  0  0
  7 15  1  6  0  0  0
M  END
>  <type>
systematic

$$$$
5-Thia-1-azabicyclo[4.2.0]oct-2-ene-2-carboxylic acid, 3-[(acetyloxy)methyl]-7-[[[2-(chloromethyl)-4-methoxyphenyl]hydroxyacetyl]amino]-8-oxo-, [6 R-(6α,7β)]-
  Mrv2401 11022422352D          

 32 34  0  0  1  0            999 V2000
    1.6905   -0.1510    0.0000 N   0  0  0  0  0  0  0  0  0  0  0  0
    2.4049    0.2615    0.0000 C   0  0  0  0  0  0  0  0  0  0  0  0
    3.1194   -0.1510    0.0000 C   0  0  0  0  0  0  0  0  0  0  0  0
    3.1194   -0.9760    0.0000 C   0  0  0  0  0  0  0  0  0  0  0  0
    2.4049   -1.3885    0.0000 S   0  0  0  0  0  0  0  0  0  0  0  0
    1.6905   -0.9760    0.0000 C   0  0  2  0  0  0  0  0  0  0  0  0
    0.8655   -0.9760    0.0000 C   0  0  2  0  0  0  0  0  0  0  0  0
    0.8655   -0.1510    0.0000 C   0  0  0  0  0  0  0  0  0  0  0  0
    2.4049    1.0865    0.0000 C   0  0  0  0  0  0  0  0  0  0  0  0
    3.1194    1.4990    0.0000 O   0  0  0  0  0  0  0  0  0  0  0  0
    1.6905    1.4990    0.0000 O   0  0  0  0  0  0  0  0  0  0  0  0
    0.2821    0.4324    0.0000 O   0  0  0  0  0  0  0  0  0  0  0  0
    0.2821   -1.5593    0.0000 N   0  0  0  0  0  0  0  0  0  0  0  0
   -0.5148   -1.3458    0.0000 C   0  0  0  0  0  0  0  0  0  0  0  0
   -0.7283   -0.5489    0.0000 O   0  0  0  0  0  0  0  0  0  0  0  0
   -1.0982   -1.9292    0.0000 C   0  0  0  0  0  0  0  0  0  0  0  0
   -0.8846   -2.7261    0.0000 O   0  0  0  0  0  0  0  0  0  0  0  0
   -1.8950   -1.7157    0.0000 C   0  0  0  0  0  0  0  0  0  0  0  0
   -2.4784   -2.2990    0.0000 C   0  0  0  0  0  0  0  0  0  0  0  0
   -3.2753   -2.0855    0.0000 C   0  0  0  0  0  0  0  0  0  0  0  0
   -3.4888   -1.2886    0.0000 C   0  0  0  0  0  0  0  0  0  0  0  0
   -2.9055   -0.7052    0.0000 C   0  0  0  0  0  0  0  0  0  0  0  0
   -2.1086   -0.9188    0.0000 C   0  0  0  0  0  0  0  0  0  0  0  0
   -4.2857   -1.0751    0.0000 O   0  0  0  0  0  0  0  0  0  0  0  0
   -4.4992   -0.2782    0.0000 C   0  0  0  0  0  0  0  0  0  0  0  0
   -2.2649   -3.0959    0.0000 C   0  0  0  0  0  0  0  0  0  0  0  0
   -2.8482   -3.6793    0.0000 Cl  0  0  0  0  0  0  0  0  0  0  0  0
    3.8339    0.2615    0.0000 C   0  0  0  0  0  0  0  0  0  0  0  0
    3.8339    1.0865    0.0000 O   0  0  0  0  0  0  0  0  0  0  0  0
    4.5483    1.4990    0.0000 C   0  0  0  0  0  0  0  0  0  0  0  0
    4.5483    2.3240    0.0000 O   0  0  0  0  0  0  0  0  0  0  0  0
    5.2628    1.0865    0.0000 C   0  0  0  0  0  0  0  0  0  0  0  0
  1  2  1  0  0  0  0
  2  3  2  0  0  0  0
  3  4  1  0  0  0  0
  4  5  1  0  0  0  0
  6  5  1  0  0  0  0
  6  1  1  6  0  0  0
  6  7  1  0  0  0  0
  7  8  1  0  0  0  0
  1  8  1  0  0  0  0
  9 10  1  0  0  0  0
  9 11  2  0  0  0  0
  2  9  1  0  0  0  0
  8 12  2  0  0  0  0
 14 15  2  0  0  0  0
 14 16  1  0  0  0  0
 16 17  1  0  0  0  0
 18 19  2  0  0  0  0
 19 20  1  0  0  0  0
 20 21  2  0  0  0  0
 21 22  1  0  0  0  0
 22 23  2  0  0  0  0
 18 23  1  0  0  0  0
 24 25  1  0  0  0  0
 21 24  1  0  0  0  0
 26 27  1  0  0  0  0
 19 26  1  0  0  0  0
 16 18  1  0  0  0  0
 13 14  1  0  0  0  0
  7 13  1  1  0  0  0
 29 30  1  0  0  0  0
 30 31  2  0  0  0  0
 30 32  1  0  0  0  0
 28 29  1  0  0  0  0
  3 28  1  0  0  0  0
M  END
>  <type>
systematic

$$$$
5-Thia-1-azabicyclo[4.2.0]oct-2-ene-2-carboxylic acid, 7-[[(2-amino-4-thiazolyl)hydroxyacetyl]amino]-3-[(methylthio)methyl]-8-oxo-, [6 R-(6α,7β)]-
  Mrv2401 11022422362D          

 26 28  0  0  1  0            999 V2000
    1.6905   -0.1510    0.0000 N   0  0  0  0  0  0  0  0  0  0  0  0
    2.4049    0.2615    0.0000 C   0  0  0  0  0  0  0  0  0  0  0  0
    3.1194   -0.1510    0.0000 C   0  0  0  0  0  0  0  0  0  0  0  0
    3.1194   -0.9760    0.0000 C   0  0  0  0  0  0  0  0  0  0  0  0
    2.4049   -1.3885    0.0000 S   0  0  0  0  0  0  0  0  0  0  0  0
    1.6905   -0.9760    0.0000 C   0  0  2  0  0  0  0  0  0  0  0  0
    0.8655   -0.9760    0.0000 C   0  0  2  0  0  0  0  0  0  0  0  0
    0.8655   -0.1510    0.0000 C   0  0  0  0  0  0  0  0  0  0  0  0
    2.4049    1.0865    0.0000 C   0  0  0  0  0  0  0  0  0  0  0  0
    3.1194    1.4990    0.0000 O   0  0  0  0  0  0  0  0  0  0  0  0
    1.6905    1.4990    0.0000 O   0  0  0  0  0  0  0  0  0  0  0  0
    0.2821    0.4324    0.0000 O   0  0  0  0  0  0  0  0  0  0  0  0
    3.8339    0.2615    0.0000 C   0  0  0  0  0  0  0  0  0  0  0  0
    4.5483   -0.1510    0.0000 S   0  0  0  0  0  0  0  0  0  0  0  0
    5.2628    0.2615    0.0000 C   0  0  0  0  0  0  0  0  0  0  0  0
    0.2821   -1.5593    0.0000 N   0  0  0  0  0  0  0  0  0  0  0  0
    0.4956   -2.3562    0.0000 C   0  0  0  0  0  0  0  0  0  0  0  0
    1.2925   -2.5698    0.0000 O   0  0  0  0  0  0  0  0  0  0  0  0
   -0.0877   -2.9396    0.0000 C   0  0  0  0  0  0  0  0  0  0  0  0
   -0.8846   -2.7261    0.0000 O   0  0  0  0  0  0  0  0  0  0  0  0
    0.8528   -4.8560    0.0000 S   0  0  0  0  0  0  0  0  0  0  0  0
    0.0559   -5.0695    0.0000 C   0  0  0  0  0  0  0  0  0  0  0  0
   -0.3934   -4.3776    0.0000 N   0  0  0  0  0  0  0  0  0  0  0  0
    0.1258   -3.7365    0.0000 C   0  0  0  0  0  0  0  0  0  0  0  0
    0.8960   -4.0321    0.0000 C   0  0  0  0  0  0  0  0  0  0  0  0
   -0.2397   -5.8397    0.0000 N   0  0  0  0  0  0  0  0  0  0  0  0
  1  2  1  0  0  0  0
  2  3  2  0  0  0  0
  3  4  1  0  0  0  0
  4  5  1  0  0  0  0
  6  5  1  0  0  0  0
  6  1  1  6  0  0  0
  6  7  1  0  0  0  0
  7  8  1  0  0  0  0
  1  8  1  0  0  0  0
  9 10  1  0  0  0  0
  9 11  2  0  0  0  0
  2  9  1  0  0  0  0
  8 12  2  0  0  0  0
 14 15  1  0  0  0  0
 13 14  1  0  0  0  0
  3 13  1  0  0  0  0
 17 18  2  0  0  0  0
 17 19  1  0  0  0  0
 19 20  1  0  0  0  0
 21 22  1  0  0  0  0
 22 23  2  0  0  0  0
 23 24  1  0  0  0  0
 24 25  2  0  0  0  0
 21 25  1  0  0  0  0
 22 26  1  0  0  0  0
 19 24  1  0  0  0  0
 16 17  1  0  0  0  0
  7 16  1  1  0  0  0
M  END
>  <type>
systematic

$$$$
5-Oxa-1-azabicyclo[4.2.0]oct-2-ene-2-carboxylic acid, 7-[[[2-(formylamino)-4-thiazolyl]oxoacetyl]amino]-8-oxo-, trans-
  Mrv2401 11022422382D          

 25 27  0  0  0  0            999 V2000
    1.6905   -0.1510    0.0000 N   0  0  0  0  0  0  0  0  0  0  0  0
    2.4049    0.2615    0.0000 C   0  0  0  0  0  0  0  0  0  0  0  0
    3.1194   -0.1510    0.0000 C   0  0  0  0  0  0  0  0  0  0  0  0
    3.1194   -0.9760    0.0000 C   0  0  0  0  0  0  0  0  0  0  0  0
    2.4049   -1.3885    0.0000 O   0  0  0  0  0  0  0  0  0  0  0  0
    1.6905   -0.9760    0.0000 C   0  0  0  0  0  0  0  0  0  0  0  0
    0.8655   -0.9760    0.0000 C   0  0  0  0  0  0  0  0  0  0  0  0
    0.8655   -0.1510    0.0000 C   0  0  0  0  0  0  0  0  0  0  0  0
    2.4049    1.0865    0.0000 C   0  0  0  0  0  0  0  0  0  0  0  0
    3.1194    1.4990    0.0000 O   0  0  0  0  0  0  0  0  0  0  0  0
    1.6905    1.4990    0.0000 O   0  0  0  0  0  0  0  0  0  0  0  0
    0.2821    0.4324    0.0000 O   0  0  0  0  0  0  0  0  0  0  0  0
    0.2821   -1.5593    0.0000 N   0  0  0  0  0  0  0  0  0  0  0  0
    0.4956   -2.3562    0.0000 C   0  0  0  0  0  0  0  0  0  0  0  0
    1.2925   -2.5698    0.0000 O   0  0  0  0  0  0  0  0  0  0  0  0
   -0.0877   -2.9396    0.0000 C   0  0  0  0  0  0  0  0  0  0  0  0
   -0.8846   -2.7261    0.0000 O   0  0  0  0  0  0  0  0  0  0  0  0
    0.8528   -4.8560    0.0000 S   0  0  0  0  0  0  0  0  0  0  0  0
    0.0559   -5.0695    0.0000 C   0  0  0  0  0  0  0  0  0  0  0  0
   -0.3934   -4.3776    0.0000 N   0  0  0  0  0  0  0  0  0  0  0  0
    0.1258   -3.7365    0.0000 C   0  0  0  0  0  0  0  0  0  0  0  0
    0.8960   -4.0321    0.0000 C   0  0  0  0  0  0  0  0  0  0  0  0
   -0.2397   -5.8397    0.0000 N   0  0  0  0  0  0  0  0  0  0  0  0
   -1.0546   -5.9688    0.0000 C   0  0  0  0  0  0  0  0  0  0  0  0
   -1.3502   -6.7390    0.0000 O   0  0  0  0  0  0  0  0  0  0  0  0
  1  2  1  0  0  0  0
  2  3  2  0  0  0  0
  3  4  1  0  0  0  0
  4  5  1  0  0  0  0
  5  6  1  0  0  0  0
  1  6  1  0  0  0  0
  6  7  1  0  0  0  0
  7  8  1  0  0  0  0
  1  8  1  0  0  0  0
  9 10  1  0  0  0  0
  9 11  2  0  0  0  0
  2  9  1  0  0  0  0
  8 12  2  0  0  0  0
 14 15  2  0  0  0  0
 14 16  1  0  0  0  0
 16 17  2  0  0  0  0
 18 19  1  0  0  0  0
 19 20  2  0  0  0  0
 20 21  1  0  0  0  0
 21 22  2  0  0  0  0
 18 22  1  0  0  0  0
 24 25  2  0  0  0  0
 23 24  1  0  0  0  0
 19 23  1  0  0  0  0
 16 21  1  0  0  0  0
 13 14  1  0  0  0  0
  7 13  1  0  0  0  0
M  END
>  <Ambiguous>
ambiguous

>  <type>
systematic

$$$$
5-Thia-1-azabicyclo[4.2.0]oct-2-ene-2-carboxylic acid, 3-[(acetyloxy)methyl]-8-oxo-7-[(oxo-4-thiazolylacetyl)amino]-, 5-oxide, [5 S-(5α,6β,7α)]-
  Mrv2401 11022422402D          

 28 30  0  0  1  0            999 V2000
    1.6905   -0.1510    0.0000 N   0  0  0  0  0  0  0  0  0  0  0  0
    2.4049    0.2615    0.0000 C   0  0  0  0  0  0  0  0  0  0  0  0
    3.1194   -0.1510    0.0000 C   0  0  0  0  0  0  0  0  0  0  0  0
    3.1194   -0.9760    0.0000 C   0  0  0  0  0  0  0  0  0  0  0  0
    2.4049   -1.3885    0.0000 S   0  0  1  0  0  0  0  0  0  0  0  0
    1.6905   -0.9760    0.0000 C   0  0  2  0  0  0  0  0  0  0  0  0
    0.8655   -0.9760    0.0000 C   0  0  1  0  0  0  0  0  0  0  0  0
    0.8655   -0.1510    0.0000 C   0  0  0  0  0  0  0  0  0  0  0  0
    2.4049    1.0865    0.0000 C   0  0  0  0  0  0  0  0  0  0  0  0
    3.1194    1.4990    0.0000 O   0  0  0  0  0  0  0  0  0  0  0  0
    1.6905    1.4990    0.0000 O   0  0  0  0  0  0  0  0  0  0  0  0
    0.2821   -1.5593    0.0000 N   0  0  0  0  0  0  0  0  0  0  0  0
   -0.5148   -1.3458    0.0000 C   0  0  0  0  0  0  0  0  0  0  0  0
   -0.7283   -0.5489    0.0000 O   0  0  0  0  0  0  0  0  0  0  0  0
   -1.0982   -1.9292    0.0000 C   0  0  0  0  0  0  0  0  0  0  0  0
   -3.2281   -1.7855    0.0000 S   0  0  0  0  0  0  0  0  0  0  0  0
   -3.0146   -0.9886    0.0000 C   0  0  0  0  0  0  0  0  0  0  0  0
   -2.1907   -0.9455    0.0000 N   0  0  0  0  0  0  0  0  0  0  0  0
   -1.8950   -1.7157    0.0000 C   0  0  0  0  0  0  0  0  0  0  0  0
   -2.5362   -2.2348    0.0000 C   0  0  0  0  0  0  0  0  0  0  0  0
   -0.8846   -2.7261    0.0000 O   0  0  0  0  0  0  0  0  0  0  0  0
    0.2821    0.4324    0.0000 O   0  0  0  0  0  0  0  0  0  0  0  0
    3.8339    0.2615    0.0000 C   0  0  0  0  0  0  0  0  0  0  0  0
    3.8339    1.0865    0.0000 O   0  0  0  0  0  0  0  0  0  0  0  0
    4.5483    1.4990    0.0000 C   0  0  0  0  0  0  0  0  0  0  0  0
    4.5483    2.3240    0.0000 O   0  0  0  0  0  0  0  0  0  0  0  0
    5.2628    1.0865    0.0000 C   0  0  0  0  0  0  0  0  0  0  0  0
    2.4049   -2.2135    0.0000 O   0  0  0  0  0  0  0  0  0  0  0  0
  1  2  1  0  0  0  0
  2  3  2  0  0  0  0
  3  4  1  0  0  0  0
  5  4  1  6  0  0  0
  6  5  1  0  0  0  0
  6  1  1  6  0  0  0
  6  7  1  0  0  0  0
  7  8  1  0  0  0  0
  1  8  1  0  0  0  0
  9 10  1  0  0  0  0
  9 11  2  0  0  0  0
  2  9  1  0  0  0  0
 13 14  2  0  0  0  0
 13 15  1  0  0  0  0
 16 17  1  0  0  0  0
 17 18  2  0  0  0  0
 18 19  1  0  0  0  0
 19 20  2  0  0  0  0
 16 20  1  0  0  0  0
 15 19  1  0  0  0  0
 15 21  2  0  0  0  0
 12 13  1  0  0  0  0
  7 12  1  6  0  0  0
  8 22  2  0  0  0  0
 24 25  1  0  0  0  0
 25 26  2  0  0  0  0
 25 27  1  0  0  0  0
 23 24  1  0  0  0  0
  3 23  1  0  0  0  0
  5 28  2  0  0  0  0
M  END
>  <type>
systematic

$$$$
5-Thia-1-azabicyclo[4.2.0]oct-2-ene-2-carboxylic acid, 7-[(hydroxyphenylacetyl)amino]-3-(5-methyl-1,3,4-thiadiazol-2-yl)-8-oxo-, [6 R-[6α,7β(R*)]]-
  Mrv2401 11022422412D          

  0  0  0     0  0            999 V3000
M  V30 BEGIN CTAB
M  V30 COUNTS 29 32 0 0 1
M  V30 BEGIN ATOM
M  V30 1 N 3.1555 -0.2818 0 0
M  V30 2 C 4.4892 0.4882 0 0
M  V30 3 C 5.8229 -0.2818 0 0
M  V30 4 C 5.8229 -1.8218 0 0
M  V30 5 S 4.4892 -2.5918 0 0
M  V30 6 C 3.1555 -1.8218 0 0 CFG=2
M  V30 7 C 1.6155 -1.8218 0 0 CFG=1
M  V30 8 C 1.6155 -0.2818 0 0
M  V30 9 C 4.4892 2.0282 0 0
M  V30 10 O 5.8229 2.7982 0 0
M  V30 11 O 3.1555 2.7982 0 0
M  V30 12 O 0.5266 0.8071 0 0
M  V30 13 S 8.5634 -0.1382 0 0
M  V30 14 C 7.1566 0.4882 0 0
M  V30 15 N 7.3175 2.0197 0 0
M  V30 16 N 8.8239 2.3399 0 0
M  V30 17 C 9.5939 1.0062 0 0
M  V30 18 C 11.1254 0.8453 0 0
M  V30 19 N 0.5266 -2.9108 0 0
M  V30 20 C -0.961 -2.5122 0 0
M  V30 21 O -1.3595 -1.0247 0 0
M  V30 22 C -2.0499 -3.6011 0 0
M  V30 23 C -3.5374 -3.2026 0 0
M  V30 24 C -4.6264 -4.2915 0 0
M  V30 25 C -6.1139 -3.8929 0 0
M  V30 26 C -6.5125 -2.4054 0 0
M  V30 27 C -5.4235 -1.3165 0 0
M  V30 28 C -3.936 -1.715 0 0
M  V30 29 O -1.6513 -5.0887 0 0
M  V30 END ATOM
M  V30 BEGIN BOND
M  V30 1 1 1 2
M  V30 2 2 2 3
M  V30 3 1 3 4
M  V30 4 1 4 5
M  V30 5 1 6 5
M  V30 6 1 6 1 CFG=3
M  V30 7 1 6 7
M  V30 8 1 7 8
M  V30 9 1 1 8
M  V30 10 1 9 10
M  V30 11 2 9 11
M  V30 12 1 2 9
M  V30 13 2 8 12
M  V30 14 1 13 14
M  V30 15 2 14 15
M  V30 16 1 15 16
M  V30 17 2 16 17
M  V30 18 1 13 17
M  V30 19 1 17 18
M  V30 20 1 3 14
M  V30 21 2 20 21
M  V30 22 1 20 22
M  V30 23 2 23 24
M  V30 24 1 24 25
M  V30 25 2 25 26
M  V30 26 1 26 27
M  V30 27 2 27 28
M  V30 28 1 23 28
M  V30 29 1 22 23
M  V30 30 1 22 29
M  V30 31 1 19 20
M  V30 32 1 7 19 CFG=3
M  V30 END BOND
M  V30 BEGIN COLLECTION
M  V30 MDLV30/STEREL1 ATOMS=(1 7)
M  V30 END COLLECTION
M  V30 END CTAB
M  END
>  <type>
systematic

$$$$
5-Thia-1-azabicyclo[4.2.0]oct-2-ene-2-carboxylic acid, 7-[(hydroxy-2-thienylacetyl)amino]-8-oxo-3-[(2-thiazolylthio)methyl]-, [6 R-(6α,7β)]-
  Mrv2401 11022422422D          

 29 32  0  0  1  0            999 V2000
    1.6905   -0.1510    0.0000 N   0  0  0  0  0  0  0  0  0  0  0  0
    2.4049    0.2615    0.0000 C   0  0  0  0  0  0  0  0  0  0  0  0
    3.1194   -0.1510    0.0000 C   0  0  0  0  0  0  0  0  0  0  0  0
    3.1194   -0.9760    0.0000 C   0  0  0  0  0  0  0  0  0  0  0  0
    2.4049   -1.3885    0.0000 S   0  0  0  0  0  0  0  0  0  0  0  0
    1.6905   -0.9760    0.0000 C   0  0  2  0  0  0  0  0  0  0  0  0
    0.8655   -0.9760    0.0000 C   0  0  2  0  0  0  0  0  0  0  0  0
    0.8655   -0.1510    0.0000 C   0  0  0  0  0  0  0  0  0  0  0  0
    2.4049    1.0865    0.0000 C   0  0  0  0  0  0  0  0  0  0  0  0
    3.1194    1.4990    0.0000 O   0  0  0  0  0  0  0  0  0  0  0  0
    1.6905    1.4990    0.0000 O   0  0  0  0  0  0  0  0  0  0  0  0
    3.8339    0.2615    0.0000 C   0  0  0  0  0  0  0  0  0  0  0  0
    4.5483   -0.1510    0.0000 S   0  0  0  0  0  0  0  0  0  0  0  0
    6.0165   -0.0740    0.0000 S   0  0  0  0  0  0  0  0  0  0  0  0
    5.2628    0.2615    0.0000 C   0  0  0  0  0  0  0  0  0  0  0  0
    5.3490    1.0820    0.0000 N   0  0  0  0  0  0  0  0  0  0  0  0
    6.1560    1.2535    0.0000 C   0  0  0  0  0  0  0  0  0  0  0  0
    6.5685    0.5391    0.0000 C   0  0  0  0  0  0  0  0  0  0  0  0
    0.2821    0.4324    0.0000 O   0  0  0  0  0  0  0  0  0  0  0  0
    0.2821   -1.5593    0.0000 N   0  0  0  0  0  0  0  0  0  0  0  0
   -0.5148   -1.3458    0.0000 C   0  0  0  0  0  0  0  0  0  0  0  0
   -0.7283   -0.5489    0.0000 O   0  0  0  0  0  0  0  0  0  0  0  0
   -1.0982   -1.9292    0.0000 C   0  0  0  0  0  0  0  0  0  0  0  0
   -2.1907   -0.9455    0.0000 S   0  0  0  0  0  0  0  0  0  0  0  0
   -1.8950   -1.7157    0.0000 C   0  0  0  0  0  0  0  0  0  0  0  0
   -2.5362   -2.2348    0.0000 C   0  0  0  0  0  0  0  0  0  0  0  0
   -3.2281   -1.7855    0.0000 C   0  0  0  0  0  0  0  0  0  0  0  0
   -3.0146   -0.9886    0.0000 C   0  0  0  0  0  0  0  0  0  0  0  0
   -0.8846   -2.7261    0.0000 O   0  0  0  0  0  0  0  0  0  0  0  0
  1  2  1  0  0  0  0
  2  3  2  0  0  0  0
  3  4  1  0  0  0  0
  4  5  1  0  0  0  0
  6  5  1  0  0  0  0
  6  1  1  6  0  0  0
  6  7  1  0  0  0  0
  7  8  1  0  0  0  0
  1  8  1  0  0  0  0
  9 10  1  0  0  0  0
  9 11  2  0  0  0  0
  2  9  1  0  0  0  0
 14 15  1  0  0  0  0
 15 16  2  0  0  0  0
 16 17  1  0  0  0  0
 17 18  2  0  0  0  0
 14 18  1  0  0  0  0
 13 15  1  0  0  0  0
 12 13  1  0  0  0  0
  3 12  1  0  0  0  0
  8 19  2  0  0  0  0
 21 22  2  0  0  0  0
 21 23  1  0  0  0  0
 24 25  1  0  0  0  0
 25 26  2  0  0  0  0
 26 27  1  0  0  0  0
 27 28  2  0  0  0  0
 24 28  1  0  0  0  0
 23 25  1  0  0  0  0
 23 29  1  0  0  0  0
 20 21  1  0  0  0  0
  7 20  1  1  0  0  0
M  END
>  <type>
systematic

$$$$
5-Thia-1-azabicyclo[4.2.0]oct-2-ene-2-carboxylic acid, 7-[(hydroxyphenylacetyl)amino]-8-oxo-3-[(pyrazinylthio)methyl]-,[6 R-[6α,7β(R*)]]-
  Mrv2401 11022422432D          

  0  0  0     0  0            999 V3000
M  V30 BEGIN CTAB
M  V30 COUNTS 31 34 0 0 1
M  V30 BEGIN ATOM
M  V30 1 N 3.1555 -0.2818 0 0
M  V30 2 C 4.4892 0.4882 0 0
M  V30 3 C 5.8229 -0.2818 0 0
M  V30 4 C 5.8229 -1.8218 0 0
M  V30 5 S 4.4892 -2.5918 0 0
M  V30 6 C 3.1555 -1.8218 0 0 CFG=2
M  V30 7 C 1.6155 -1.8218 0 0 CFG=1
M  V30 8 C 1.6155 -0.2818 0 0
M  V30 9 C 4.4892 2.0282 0 0
M  V30 10 O 5.8229 2.7982 0 0
M  V30 11 O 3.1555 2.7982 0 0
M  V30 12 C 7.1566 0.4882 0 0
M  V30 13 S 8.4902 -0.2818 0 0
M  V30 14 C 11.1576 -0.2818 0 0
M  V30 15 C 9.8239 0.4882 0 0
M  V30 16 N 9.8239 2.0282 0 0
M  V30 17 C 11.1576 2.7982 0 0
M  V30 18 C 12.4913 2.0282 0 0
M  V30 19 N 12.4913 0.4882 0 0
M  V30 20 O 0.5266 0.8071 0 0
M  V30 21 N 0.5266 -2.9108 0 0
M  V30 22 C -0.961 -2.5122 0 0
M  V30 23 O -1.3595 -1.0247 0 0
M  V30 24 C -2.0499 -3.6011 0 0
M  V30 25 C -3.5374 -3.2026 0 0
M  V30 26 C -4.6264 -4.2915 0 0
M  V30 27 C -6.1139 -3.8929 0 0
M  V30 28 C -6.5125 -2.4054 0 0
M  V30 29 C -5.4235 -1.3165 0 0
M  V30 30 C -3.936 -1.715 0 0
M  V30 31 O -1.6513 -5.0887 0 0
M  V30 END ATOM
M  V30 BEGIN BOND
M  V30 1 1 1 2
M  V30 2 2 2 3
M  V30 3 1 3 4
M  V30 4 1 4 5
M  V30 5 1 6 5
M  V30 6 1 6 1 CFG=3
M  V30 7 1 6 7
M  V30 8 1 7 8
M  V30 9 1 1 8
M  V30 10 1 9 10
M  V30 11 2 9 11
M  V30 12 1 2 9
M  V30 13 2 14 15
M  V30 14 1 15 16
M  V30 15 2 16 17
M  V30 16 1 17 18
M  V30 17 2 18 19
M  V30 18 1 14 19
M  V30 19 1 13 15
M  V30 20 1 12 13
M  V30 21 1 3 12
M  V30 22 2 8 20
M  V30 23 2 22 23
M  V30 24 1 22 24
M  V30 25 2 25 26
M  V30 26 1 26 27
M  V30 27 2 27 28
M  V30 28 1 28 29
M  V30 29 2 29 30
M  V30 30 1 25 30
M  V30 31 1 24 25
M  V30 32 1 24 31
M  V30 33 1 21 22
M  V30 34 1 7 21 CFG=3
M  V30 END BOND
M  V30 BEGIN COLLECTION
M  V30 MDLV30/STEREL1 ATOMS=(1 7)
M  V30 END COLLECTION
M  V30 END CTAB
M  END
>  <type>
systematic

$$$$
5-Thia-1-azabicyclo[4.2.0]oct-2-ene-2-carboxylic acid, 7-[[[(aminocarbonyl)oxy](4-carboxyphenyl)acetyl]amino]-3-(azidomethyl)-8-oxo-, [6 R-(6α,7β)]-
  Mrv2401 11022422442D          

 33 35  0  0  1  0            999 V2000
    0.9134    0.0679    0.0000 N   0  0  0  0  0  0  0  0  0  0  0  0
    0.3301    0.6512    0.0000 C   0  0  0  0  0  0  0  0  0  0  0  0
    0.5436    1.4481    0.0000 C   0  0  0  0  0  0  0  0  0  0  0  0
    1.3405    1.6616    0.0000 C   0  0  0  0  0  0  0  0  0  0  0  0
    1.9239    1.0783    0.0000 S   0  0  0  0  0  0  0  0  0  0  0  0
    1.7103    0.2814    0.0000 C   0  0  2  0  0  0  0  0  0  0  0  0
    1.9239   -0.5155    0.0000 C   0  0  2  0  0  0  0  0  0  0  0  0
    1.1270   -0.7290    0.0000 C   0  0  0  0  0  0  0  0  0  0  0  0
   -0.4668    0.4377    0.0000 C   0  0  0  0  0  0  0  0  0  0  0  0
   -1.0502    1.0211    0.0000 O   0  0  0  0  0  0  0  0  0  0  0  0
   -0.6803   -0.3592    0.0000 O   0  0  0  0  0  0  0  0  0  0  0  0
    0.7145   -1.4435    0.0000 O   0  0  0  0  0  0  0  0  0  0  0  0
   -0.0398    2.0315    0.0000 C   0  0  0  0  0  0  0  0  0  0  0  0
    0.1738    2.8284    0.0000 N   0  0  0  0  0  0  0  0  0  0  0  0
   -0.4096    3.4117    0.0000 N   0  3  0  0  0  0  0  0  0  0  0  0
   -0.9930    3.9951    0.0000 N   0  5  0  0  0  0  0  0  0  0  0  0
    2.6383   -0.9280    0.0000 N   0  0  0  0  0  0  0  0  0  0  0  0
    2.6383   -1.7530    0.0000 C   0  0  0  0  0  0  0  0  0  0  0  0
    1.9239   -2.1655    0.0000 O   0  0  0  0  0  0  0  0  0  0  0  0
    3.3528   -2.1655    0.0000 C   0  0  0  0  0  0  0  0  0  0  0  0
    3.3528   -2.9905    0.0000 C   0  0  0  0  0  0  0  0  0  0  0  0
    4.0673   -3.4030    0.0000 C   0  0  0  0  0  0  0  0  0  0  0  0
    4.0673   -4.2280    0.0000 C   0  0  0  0  0  0  0  0  0  0  0  0
    3.3528   -4.6405    0.0000 C   0  0  0  0  0  0  0  0  0  0  0  0
    2.6383   -4.2280    0.0000 C   0  0  0  0  0  0  0  0  0  0  0  0
    2.6383   -3.4030    0.0000 C   0  0  0  0  0  0  0  0  0  0  0  0
    3.3528   -5.4655    0.0000 C   0  0  0  0  0  0  0  0  0  0  0  0
    4.0673   -5.8780    0.0000 O   0  0  0  0  0  0  0  0  0  0  0  0
    2.6383   -5.8780    0.0000 O   0  0  0  0  0  0  0  0  0  0  0  0
    4.0673   -1.7530    0.0000 O   0  0  0  0  0  0  0  0  0  0  0  0
    4.0673   -0.9280    0.0000 C   0  0  0  0  0  0  0  0  0  0  0  0
    3.3528   -0.5155    0.0000 O   0  0  0  0  0  0  0  0  0  0  0  0
    4.7817   -0.5155    0.0000 N   0  0  0  0  0  0  0  0  0  0  0  0
  1  2  1  0  0  0  0
  2  3  2  0  0  0  0
  3  4  1  0  0  0  0
  4  5  1  0  0  0  0
  6  5  1  0  0  0  0
  6  1  1  6  0  0  0
  6  7  1  0  0  0  0
  7  8  1  0  0  0  0
  1  8  1  0  0  0  0
  9 10  1  0  0  0  0
  9 11  2  0  0  0  0
  2  9  1  0  0  0  0
  8 12  2  0  0  0  0
 14 15  2  0  0  0  0
 15 16  2  0  0  0  0
 13 14  1  0  0  0  0
  3 13  1  0  0  0  0
 18 19  2  0  0  0  0
 18 20  1  0  0  0  0
 21 22  2  0  0  0  0
 22 23  1  0  0  0  0
 23 24  2  0  0  0  0
 24 25  1  0  0  0  0
 25 26  2  0  0  0  0
 21 26  1  0  0  0  0
 27 28  1  0  0  0  0
 27 29  2  0  0  0  0
 24 27  1  0  0  0  0
 20 21  1  0  0  0  0
 31 32  2  0  0  0  0
 31 33  1  0  0  0  0
 30 31  1  0  0  0  0
 20 30  1  0  0  0  0
 17 18  1  0  0  0  0
  7 17  1  1  0  0  0
M  CHG  2  15   1  16  -1
M  END
>  <type>
systematic

$$$$
Cyclopropanecarboxylic acid, 1-[[2-[5-amino-4-[[(3-cyano-4-fluorophenyl)amino]carbonyl]-3-methyl-2-thienyl]-2-oxoacetyl]amino]-
  Mrv2401 11022422452D          

 30 32  0  0  0  0            999 V2000
    1.1260   -6.3558    0.0000 C   0  0  0  0  0  0  0  0  0  0  0  0
    0.7135   -7.0702    0.0000 C   0  0  0  0  0  0  0  0  0  0  0  0
    1.5385   -7.0702    0.0000 C   0  0  0  0  0  0  0  0  0  0  0  0
    0.6528   -5.6800    0.0000 C   0  0  0  0  0  0  0  0  0  0  0  0
   -0.1691   -5.7519    0.0000 O   0  0  0  0  0  0  0  0  0  0  0  0
    1.0015   -4.9323    0.0000 O   0  0  0  0  0  0  0  0  0  0  0  0
    1.5992   -5.6800    0.0000 N   0  0  0  0  0  0  0  0  0  0  0  0
    2.4211   -5.7519    0.0000 C   0  0  0  0  0  0  0  0  0  0  0  0
    2.7697   -6.4996    0.0000 O   0  0  0  0  0  0  0  0  0  0  0  0
    2.8943   -5.0761    0.0000 C   0  0  0  0  0  0  0  0  0  0  0  0
    2.5456   -4.3284    0.0000 O   0  0  0  0  0  0  0  0  0  0  0  0
    4.1410   -5.8551    0.0000 S   0  0  0  0  0  0  0  0  0  0  0  0
    3.7161   -5.1480    0.0000 C   0  0  0  0  0  0  0  0  0  0  0  0
    4.2574   -4.5253    0.0000 C   0  0  0  0  0  0  0  0  0  0  0  0
    5.0168   -4.8477    0.0000 C   0  0  0  0  0  0  0  0  0  0  0  0
    4.9449   -5.6696    0.0000 C   0  0  0  0  0  0  0  0  0  0  0  0
    4.0718   -3.7215    0.0000 C   0  0  0  0  0  0  0  0  0  0  0  0
    5.7239   -4.4228    0.0000 C   0  0  0  0  0  0  0  0  0  0  0  0
    6.4455   -4.8228    0.0000 O   0  0  0  0  0  0  0  0  0  0  0  0
    5.7095   -3.5979    0.0000 N   0  0  0  0  0  0  0  0  0  0  0  0
    6.4167   -3.1730    0.0000 C   0  0  0  0  0  0  0  0  0  0  0  0
    6.4023   -2.3481    0.0000 C   0  0  0  0  0  0  0  0  0  0  0  0
    7.1095   -1.9232    0.0000 C   0  0  0  0  0  0  0  0  0  0  0  0
    7.8310   -2.3232    0.0000 C   0  0  0  0  0  0  0  0  0  0  0  0
    7.8454   -3.1481    0.0000 C   0  0  0  0  0  0  0  0  0  0  0  0
    7.1383   -3.5730    0.0000 C   0  0  0  0  0  0  0  0  0  0  0  0
    8.5382   -1.8983    0.0000 F   0  0  0  0  0  0  0  0  0  0  0  0
    7.0951   -1.0984    0.0000 C   0  0  0  0  0  0  0  0  0  0  0  0
    7.0807   -0.2735    0.0000 N   0  0  0  0  0  0  0  0  0  0  0  0
    5.5675   -6.2108    0.0000 N   0  0  0  0  0  0  0  0  0  0  0  0
  1  2  1  0  0  0  0
  2  3  1  0  0  0  0
  1  3  1  0  0  0  0
  4  5  1  0  0  0  0
  4  6  2  0  0  0  0
  1  4  1  0  0  0  0
  8  9  2  0  0  0  0
  8 10  1  0  0  0  0
 10 11  2  0  0  0  0
 12 13  1  0  0  0  0
 13 14  2  0  0  0  0
 14 15  1  0  0  0  0
 15 16  2  0  0  0  0
 12 16  1  0  0  0  0
 14 17  1  0  0  0  0
 18 19  2  0  0  0  0
 21 22  2  0  0  0  0
 22 23  1  0  0  0  0
 23 24  2  0  0  0  0
 24 25  1  0  0  0  0
 25 26  2  0  0  0  0
 21 26  1  0  0  0  0
 24 27  1  0  0  0  0
 28 29  3  0  0  0  0
 23 28  1  0  0  0  0
 20 21  1  0  0  0  0
 18 20  1  0  0  0  0
 15 18  1  0  0  0  0
 16 30  1  0  0  0  0
 10 13  1  0  0  0  0
  7  8  1  0  0  0  0
  1  7  1  0  0  0  0
M  END
>  <type>
systematic

$$$$
4-[[2-[7,8-Dihydro-8,8-dimethyl-5-(4-methylphenyl)-2-naphthalenyl]-2-hydroxyacetyl]amino]-3-fluorobenzoic acid
  Mrv2401 11022422472D          

 34 37  0  0  0  0            999 V2000
    3.5724   -5.3625    0.0000 C   0  0  0  0  0  0  0  0  0  0  0  0
    3.5724   -6.1875    0.0000 C   0  0  0  0  0  0  0  0  0  0  0  0
    4.2868   -6.6000    0.0000 O   0  0  0  0  0  0  0  0  0  0  0  0
    2.8579   -6.6000    0.0000 O   0  0  0  0  0  0  0  0  0  0  0  0
    2.8579   -4.9500    0.0000 C   0  0  0  0  0  0  0  0  0  0  0  0
    2.8579   -4.1250    0.0000 C   0  0  0  0  0  0  0  0  0  0  0  0
    3.5724   -3.7125    0.0000 C   0  0  0  0  0  0  0  0  0  0  0  0
    4.2868   -4.1250    0.0000 C   0  0  0  0  0  0  0  0  0  0  0  0
    4.2868   -4.9500    0.0000 C   0  0  0  0  0  0  0  0  0  0  0  0
    2.1434   -3.7125    0.0000 F   0  0  0  0  0  0  0  0  0  0  0  0
    3.5724   -2.8875    0.0000 N   0  0  0  0  0  0  0  0  0  0  0  0
    2.8579   -2.4750    0.0000 C   0  0  0  0  0  0  0  0  0  0  0  0
    2.1434   -2.8875    0.0000 O   0  0  0  0  0  0  0  0  0  0  0  0
    2.8579   -1.6500    0.0000 C   0  0  0  0  0  0  0  0  0  0  0  0
    3.5724   -1.2375    0.0000 O   0  0  0  0  0  0  0  0  0  0  0  0
   -0.7145   -1.2375    0.0000 C   0  0  0  0  0  0  0  0  0  0  0  0
    0.0000   -1.6500    0.0000 C   0  0  0  0  0  0  0  0  0  0  0  0
    0.7145   -1.2375    0.0000 C   0  0  0  0  0  0  0  0  0  0  0  0
    0.7145   -0.4125    0.0000 C   0  0  0  0  0  0  0  0  0  0  0  0
    0.0000   -0.0000    0.0000 C   0  0  0  0  0  0  0  0  0  0  0  0
   -0.7145   -0.4125    0.0000 C   0  0  0  0  0  0  0  0  0  0  0  0
    1.4289   -0.0000    0.0000 C   0  0  0  0  0  0  0  0  0  0  0  0
    2.1434   -0.4125    0.0000 C   0  0  0  0  0  0  0  0  0  0  0  0
    2.1434   -1.2375    0.0000 C   0  0  0  0  0  0  0  0  0  0  0  0
    1.4289   -1.6500    0.0000 C   0  0  0  0  0  0  0  0  0  0  0  0
    0.0000    0.8250    0.0000 C   0  0  0  0  0  0  0  0  0  0  0  0
   -0.7145    1.2375    0.0000 C   0  0  0  0  0  0  0  0  0  0  0  0
   -0.7145    2.0625    0.0000 C   0  0  0  0  0  0  0  0  0  0  0  0
    0.0000    2.4750    0.0000 C   0  0  0  0  0  0  0  0  0  0  0  0
    0.7145    2.0625    0.0000 C   0  0  0  0  0  0  0  0  0  0  0  0
    0.7145    1.2375    0.0000 C   0  0  0  0  0  0  0  0  0  0  0  0
   -0.0000    3.3000    0.0000 C   0  0  0  0  0  0  0  0  0  0  0  0
   -0.3873   -2.3784    0.0000 C   0  0  0  0  0  0  0  0  0  0  0  0
    0.3873   -2.3784    0.0000 C   0  0  0  0  0  0  0  0  0  0  0  0
  1  2  1  0  0  0  0
  2  3  1  0  0  0  0
  2  4  2  0  0  0  0
  1  5  2  0  0  0  0
  5  6  1  0  0  0  0
  6  7  2  0  0  0  0
  7  8  1  0  0  0  0
  8  9  2  0  0  0  0
  1  9  1  0  0  0  0
  6 10  1  0  0  0  0
 12 13  2  0  0  0  0
 12 14  1  0  0  0  0
 14 15  1  0  0  0  0
 16 17  1  0  0  0  0
 17 18  1  0  0  0  0
 18 19  2  0  0  0  0
 19 20  1  0  0  0  0
 20 21  2  0  0  0  0
 16 21  1  0  0  0  0
 19 22  1  0  0  0  0
 22 23  2  0  0  0  0
 23 24  1  0  0  0  0
 24 25  2  0  0  0  0
 18 25  1  0  0  0  0
 26 27  2  0  0  0  0
 27 28  1  0  0  0  0
 28 29  2  0  0  0  0
 29 30  1  0  0  0  0
 30 31  2  0  0  0  0
 26 31  1  0  0  0  0
 29 32  1  0  0  0  0
 20 26  1  0  0  0  0
 17 33  1  0  0  0  0
 17 34  1  0  0  0  0
 14 24  1  0  0  0  0
 11 12  1  0  0  0  0
  7 11  1  0  0  0  0
M  END
>  <type>
systematic

$$$$
4-[[2-(7,8-Dihydro-8,8-dimethyl-5-phenyl-2-naphthalenyl)-2-hydroxyacetyl]amino]-3-fluorobenzoic acid
  Mrv2401 11022422492D          

 33 36  0  0  0  0            999 V2000
    3.5724   -5.3625    0.0000 C   0  0  0  0  0  0  0  0  0  0  0  0
    3.5724   -6.1875    0.0000 C   0  0  0  0  0  0  0  0  0  0  0  0
    4.2868   -6.6000    0.0000 O   0  0  0  0  0  0  0  0  0  0  0  0
    2.8579   -6.6000    0.0000 O   0  0  0  0  0  0  0  0  0  0  0  0
    2.8579   -4.9500    0.0000 C   0  0  0  0  0  0  0  0  0  0  0  0
    2.8579   -4.1250    0.0000 C   0  0  0  0  0  0  0  0  0  0  0  0
    3.5724   -3.7125    0.0000 C   0  0  0  0  0  0  0  0  0  0  0  0
    4.2868   -4.1250    0.0000 C   0  0  0  0  0  0  0  0  0  0  0  0
    4.2868   -4.9500    0.0000 C   0  0  0  0  0  0  0  0  0  0  0  0
    2.1434   -3.7125    0.0000 F   0  0  0  0  0  0  0  0  0  0  0  0
    3.5724   -2.8875    0.0000 N   0  0  0  0  0  0  0  0  0  0  0  0
    2.8579   -2.4750    0.0000 C   0  0  0  0  0  0  0  0  0  0  0  0
    2.1434   -2.8875    0.0000 O   0  0  0  0  0  0  0  0  0  0  0  0
    2.8579   -1.6500    0.0000 C   0  0  0  0  0  0  0  0  0  0  0  0
    3.5724   -1.2375    0.0000 O   0  0  0  0  0  0  0  0  0  0  0  0
   -0.7145   -1.2375    0.0000 C   0  0  0  0  0  0  0  0  0  0  0  0
    0.0000   -1.6500    0.0000 C   0  0  0  0  0  0  0  0  0  0  0  0
    0.7145   -1.2375    0.0000 C   0  0  0  0  0  0  0  0  0  0  0  0
    0.7145   -0.4125    0.0000 C   0  0  0  0  0  0  0  0  0  0  0  0
    0.0000   -0.0000    0.0000 C   0  0  0  0  0  0  0  0  0  0  0  0
   -0.7145   -0.4125    0.0000 C   0  0  0  0  0  0  0  0  0  0  0  0
    1.4289   -0.0000    0.0000 C   0  0  0  0  0  0  0  0  0  0  0  0
    2.1434   -0.4125    0.0000 C   0  0  0  0  0  0  0  0  0  0  0  0
    2.1434   -1.2375    0.0000 C   0  0  0  0  0  0  0  0  0  0  0  0
    1.4289   -1.6500    0.0000 C   0  0  0  0  0  0  0  0  0  0  0  0
    0.0000    0.8250    0.0000 C   0  0  0  0  0  0  0  0  0  0  0  0
   -0.7145    1.2375    0.0000 C   0  0  0  0  0  0  0  0  0  0  0  0
   -0.7145    2.0625    0.0000 C   0  0  0  0  0  0  0  0  0  0  0  0
    0.0000    2.4750    0.0000 C   0  0  0  0  0  0  0  0  0  0  0  0
    0.7145    2.0625    0.0000 C   0  0  0  0  0  0  0  0  0  0  0  0
    0.7145    1.2375    0.0000 C   0  0  0  0  0  0  0  0  0  0  0  0
   -0.3873   -2.3784    0.0000 C   0  0  0  0  0  0  0  0  0  0  0  0
    0.3873   -2.3784    0.0000 C   0  0  0  0  0  0  0  0  0  0  0  0
  1  2  1  0  0  0  0
  2  3  1  0  0  0  0
  2  4  2  0  0  0  0
  1  5  2  0  0  0  0
  5  6  1  0  0  0  0
  6  7  2  0  0  0  0
  7  8  1  0  0  0  0
  8  9  2  0  0  0  0
  1  9  1  0  0  0  0
  6 10  1  0  0  0  0
 12 13  2  0  0  0  0
 12 14  1  0  0  0  0
 14 15  1  0  0  0  0
 16 17  1  0  0  0  0
 17 18  1  0  0  0  0
 18 19  2  0  0  0  0
 19 20  1  0  0  0  0
 20 21  2  0  0  0  0
 16 21  1  0  0  0  0
 19 22  1  0  0  0  0
 22 23  2  0  0  0  0
 23 24  1  0  0  0  0
 24 25  2  0  0  0  0
 18 25  1  0  0  0  0
 26 27  2  0  0  0  0
 27 28  1  0  0  0  0
 28 29  2  0  0  0  0
 29 30  1  0  0  0  0
 30 31  2  0  0  0  0
 26 31  1  0  0  0  0
 20 26  1  0  0  0  0
 17 32  1  0  0  0  0
 17 33  1  0  0  0  0
 14 24  1  0  0  0  0
 11 12  1  0  0  0  0
  7 11  1  0  0  0  0
M  END
>  <type>
systematic

$$$$
2-[2-(Phenylmethoxy)phenyl]-4-thiazolecarboxylic acid 2- (4-carboxyphenyl)hydrazide
  Mrv2401 11022422502D          

 32 35  0  0  0  0            999 V2000
    3.2704   -3.7445    0.0000 S   0  0  0  0  0  0  0  0  0  0  0  0
    2.4454   -3.7445    0.0000 C   0  0  0  0  0  0  0  0  0  0  0  0
    2.1904   -2.9599    0.0000 N   0  0  0  0  0  0  0  0  0  0  0  0
    2.8579   -2.4750    0.0000 C   0  0  0  0  0  0  0  0  0  0  0  0
    3.5253   -2.9599    0.0000 C   0  0  0  0  0  0  0  0  0  0  0  0
    2.8579   -1.6500    0.0000 C   0  0  0  0  0  0  0  0  0  0  0  0
    2.1434   -1.2375    0.0000 O   0  0  0  0  0  0  0  0  0  0  0  0
    3.5724   -0.4125    0.0000 N   0  0  0  0  0  0  0  0  0  0  0  0
    3.5724   -1.2375    0.0000 N   0  0  0  0  0  0  0  0  0  0  0  0
    4.2868    0.0000    0.0000 C   0  0  0  0  0  0  0  0  0  0  0  0
    4.2868    0.8250    0.0000 C   0  0  0  0  0  0  0  0  0  0  0  0
    5.0013    1.2375    0.0000 C   0  0  0  0  0  0  0  0  0  0  0  0
    5.7158    0.8250    0.0000 C   0  0  0  0  0  0  0  0  0  0  0  0
    5.7158    0.0000    0.0000 C   0  0  0  0  0  0  0  0  0  0  0  0
    5.0013   -0.4125    0.0000 C   0  0  0  0  0  0  0  0  0  0  0  0
    6.4302    1.2375    0.0000 C   0  0  0  0  0  0  0  0  0  0  0  0
    7.1447    0.8250    0.0000 O   0  0  0  0  0  0  0  0  0  0  0  0
    6.4302    2.0625    0.0000 O   0  0  0  0  0  0  0  0  0  0  0  0
    1.9605   -4.4120    0.0000 C   0  0  0  0  0  0  0  0  0  0  0  0
    2.2960   -5.1657    0.0000 C   0  0  0  0  0  0  0  0  0  0  0  0
    1.8111   -5.8331    0.0000 C   0  0  0  0  0  0  0  0  0  0  0  0
    0.9906   -5.7469    0.0000 C   0  0  0  0  0  0  0  0  0  0  0  0
    0.6551   -4.9932    0.0000 C   0  0  0  0  0  0  0  0  0  0  0  0
    1.1400   -4.3257    0.0000 C   0  0  0  0  0  0  0  0  0  0  0  0
    3.1165   -5.2519    0.0000 O   0  0  0  0  0  0  0  0  0  0  0  0
    3.4521   -6.0056    0.0000 C   0  0  0  0  0  0  0  0  0  0  0  0
    2.9671   -6.6730    0.0000 C   0  0  0  0  0  0  0  0  0  0  0  0
    3.3027   -7.4267    0.0000 C   0  0  0  0  0  0  0  0  0  0  0  0
    2.8178   -8.0941    0.0000 C   0  0  0  0  0  0  0  0  0  0  0  0
    1.9973   -8.0079    0.0000 C   0  0  0  0  0  0  0  0  0  0  0  0
    1.6617   -7.2542    0.0000 C   0  0  0  0  0  0  0  0  0  0  0  0
    2.1467   -6.5868    0.0000 C   0  0  0  0  0  0  0  0  0  0  0  0
  1  2  1  0  0  0  0
  2  3  2  0  0  0  0
  3  4  1  0  0  0  0
  4  5  2  0  0  0  0
  1  5  1  0  0  0  0
  6  7  2  0  0  0  0
  4  6  1  0  0  0  0
  8  9  1  0  0  0  0
 10 11  2  0  0  0  0
 11 12  1  0  0  0  0
 12 13  2  0  0  0  0
 13 14  1  0  0  0  0
 14 15  2  0  0  0  0
 10 15  1  0  0  0  0
 16 17  1  0  0  0  0
 16 18  2  0  0  0  0
 13 16  1  0  0  0  0
  8 10  1  0  0  0  0
  6  9  1  0  0  0  0
 19 20  2  0  0  0  0
 20 21  1  0  0  0  0
 21 22  2  0  0  0  0
 22 23  1  0  0  0  0
 23 24  2  0  0  0  0
 19 24  1  0  0  0  0
 27 28  2  0  0  0  0
 28 29  1  0  0  0  0
 29 30  2  0  0  0  0
 30 31  1  0  0  0  0
 31 32  2  0  0  0  0
 27 32  1  0  0  0  0
 26 27  1  0  0  0  0
 25 26  1  0  0  0  0
 20 25  1  0  0  0  0
  2 19  1  0  0  0  0
M  END
>  <type>
systematic

$$$$

  Mrv2401 11022423052D          

 27 29  0  0  1  0            999 V2000
    1.6905   -0.1510    0.0000 N   0  0  0  0  0  0  0  0  0  0  0  0
    2.4049    0.2615    0.0000 C   0  0  0  0  0  0  0  0  0  0  0  0
    3.1194   -0.1510    0.0000 C   0  0  0  0  0  0  0  0  0  0  0  0
    3.1194   -0.9760    0.0000 C   0  0  0  0  0  0  0  0  0  0  0  0
    2.4049   -1.3885    0.0000 S   0  0  0  0  0  0  0  0  0  0  0  0
    1.6905   -0.9760    0.0000 C   0  0  2  0  0  0  0  0  0  0  0  0
    0.8655   -0.9760    0.0000 C   0  0  2  0  0  0  0  0  0  0  0  0
    0.8655   -0.1510    0.0000 C   0  0  0  0  0  0  0  0  0  0  0  0
    2.4049    1.0865    0.0000 C   0  0  0  0  0  0  0  0  0  0  0  0
    3.1194    1.4990    0.0000 O   0  0  0  0  0  0  0  0  0  0  0  0
    1.6905    1.4990    0.0000 O   0  0  0  0  0  0  0  0  0  0  0  0
    3.8339    0.2615    0.0000 C   0  0  0  0  0  0  0  0  0  0  0  0
    4.5483   -0.1510    0.0000 C   0  0  0  0  0  0  0  0  0  0  0  0
    5.2628    0.2615    0.0000 Cl  0  0  0  0  0  0  0  0  0  0  0  0
    0.2821    0.4324    0.0000 O   0  0  0  0  0  0  0  0  0  0  0  0
    0.2821   -1.5593    0.0000 N   0  0  0  0  0  0  0  0  0  0  0  0
   -0.5148   -1.3458    0.0000 C   0  0  0  0  0  0  0  0  0  0  0  0
   -0.7283   -0.5489    0.0000 O   0  0  0  0  0  0  0  0  0  0  0  0
   -1.0982   -1.9292    0.0000 C   0  0  0  0  0  0  0  0  0  0  0  0
   -2.1907   -0.9455    0.0000 N   0  0  0  0  0  0  0  0  0  0  0  0
   -1.8950   -1.7157    0.0000 C   0  0  0  0  0  0  0  0  0  0  0  0
   -2.5362   -2.2348    0.0000 C   0  0  0  0  0  0  0  0  0  0  0  0
   -3.2281   -1.7855    0.0000 S   0  0  0  0  0  0  0  0  0  0  0  0
   -3.0146   -0.9886    0.0000 C   0  0  0  0  0  0  0  0  0  0  0  0
   -0.8846   -2.7261    0.0000 O   0  0  0  0  0  0  0  0  0  0  0  0
   -3.5338   -0.3475    0.0000 N   0  0  0  0  0  0  0  0  0  0  0  0
    1.4769   -1.7729    0.0000 H   0  0  0  0  0  0  0  0  0  0  0  0
  1  2  1  0  0  0  0
  2  3  2  0  0  0  0
  3  4  1  0  0  0  0
  4  5  1  0  0  0  0
  6  5  1  0  0  0  0
  6  1  1  0  0  0  0
  6  7  1  0  0  0  0
  7  8  1  0  0  0  0
  1  8  1  0  0  0  0
  9 10  1  0  0  0  0
  9 11  2  0  0  0  0
  2  9  1  0  0  0  0
 13 14  1  0  0  0  0
 12 13  2  0  0  0  0
  3 12  1  0  0  0  0
  8 15  2  0  0  0  0
 17 18  2  0  0  0  0
 17 19  1  0  0  0  0
 20 21  1  0  0  0  0
 21 22  2  0  0  0  0
 22 23  1  0  0  0  0
 23 24  1  0  0  0  0
 20 24  1  0  0  0  0
 19 21  1  0  0  0  0
 19 25  1  0  0  0  0
 16 17  1  0  0  0  0
  7 16  1  1  0  0  0
 24 26  1  0  0  0  0
  6 27  1  1  0  0  0
M  END
>  <type>
systematic

$$$$

  Mrv2401 11022423042D          

 27 29  0  0  1  0            999 V2000
    1.6905   -0.1510    0.0000 N   0  0  0  0  0  0  0  0  0  0  0  0
    2.4049    0.2615    0.0000 C   0  0  0  0  0  0  0  0  0  0  0  0
    3.1194   -0.1510    0.0000 C   0  0  0  0  0  0  0  0  0  0  0  0
    3.1194   -0.9760    0.0000 C   0  0  0  0  0  0  0  0  0  0  0  0
    2.4049   -1.3885    0.0000 S   0  0  0  0  0  0  0  0  0  0  0  0
    1.6905   -0.9760    0.0000 C   0  0  2  0  0  0  0  0  0  0  0  0
    0.8655   -0.9760    0.0000 C   0  0  2  0  0  0  0  0  0  0  0  0
    0.8655   -0.1510    0.0000 C   0  0  0  0  0  0  0  0  0  0  0  0
    2.4049    1.0865    0.0000 C   0  0  0  0  0  0  0  0  0  0  0  0
    3.1194    1.4990    0.0000 O   0  0  0  0  0  0  0  0  0  0  0  0
    1.6905    1.4990    0.0000 O   0  0  0  0  0  0  0  0  0  0  0  0
    3.8339    0.2615    0.0000 C   0  0  0  0  0  0  0  0  0  0  0  0
    4.5483   -0.1510    0.0000 C   0  0  0  0  0  0  0  0  0  0  0  0
    5.2628    0.2615    0.0000 Cl  0  0  0  0  0  0  0  0  0  0  0  0
    0.2821    0.4324    0.0000 O   0  0  0  0  0  0  0  0  0  0  0  0
    0.2821   -1.5593    0.0000 N   0  0  0  0  0  0  0  0  0  0  0  0
   -0.5148   -1.3458    0.0000 C   0  0  0  0  0  0  0  0  0  0  0  0
   -0.7283   -0.5489    0.0000 O   0  0  0  0  0  0  0  0  0  0  0  0
   -1.0982   -1.9292    0.0000 C   0  0  1  0  0  0  0  0  0  0  0  0
   -2.1907   -0.9455    0.0000 N   0  0  0  0  0  0  0  0  0  0  0  0
   -1.8950   -1.7157    0.0000 C   0  0  0  0  0  0  0  0  0  0  0  0
   -2.5362   -2.2348    0.0000 C   0  0  0  0  0  0  0  0  0  0  0  0
   -3.2281   -1.7855    0.0000 S   0  0  0  0  0  0  0  0  0  0  0  0
   -3.0146   -0.9886    0.0000 C   0  0  0  0  0  0  0  0  0  0  0  0
   -0.8846   -2.7261    0.0000 O   0  0  0  0  0  0  0  0  0  0  0  0
   -3.5338   -0.3475    0.0000 N   0  0  0  0  0  0  0  0  0  0  0  0
    1.4769   -1.7729    0.0000 H   0  0  0  0  0  0  0  0  0  0  0  0
  1  2  1  0  0  0  0
  2  3  2  0  0  0  0
  3  4  1  0  0  0  0
  4  5  1  0  0  0  0
  6  5  1  0  0  0  0
  6  1  1  0  0  0  0
  6  7  1  0  0  0  0
  7  8  1  0  0  0  0
  1  8  1  0  0  0  0
  9 10  1  0  0  0  0
  9 11  2  0  0  0  0
  2  9  1  0  0  0  0
 13 14  1  0  0  0  0
 12 13  2  0  0  0  0
  3 12  1  0  0  0  0
  8 15  2  0  0  0  0
 17 18  2  0  0  0  0
 17 19  1  0  0  0  0
 20 21  1  0  0  0  0
 21 22  2  0  0  0  0
 22 23  1  0  0  0  0
 23 24  1  0  0  0  0
 20 24  1  0  0  0  0
 19 21  1  0  0  0  0
 19 25  1  6  0  0  0
 16 17  1  0  0  0  0
  7 16  1  1  0  0  0
 24 26  1  0  0  0  0
  6 27  1  1  0  0  0
M  END
>  <type>
systematic

$$$$
5-Thia-1-azabicyclo[4.2.0]oct-2-ene-2-carboxylic acid, 7-[(hydroxy-2-thienylacetyl)amino]-8-oxo-3-[(1,3,4-thiadiazol-2-ylthio)methyl]-, [6 R-(6α,7β)]-
  Mrv2401 11022422592D          

 29 32  0  0  1  0            999 V2000
    1.6905   -0.1510    0.0000 N   0  0  0  0  0  0  0  0  0  0  0  0
    2.4049    0.2615    0.0000 C   0  0  0  0  0  0  0  0  0  0  0  0
    3.1194   -0.1510    0.0000 C   0  0  0  0  0  0  0  0  0  0  0  0
    3.1194   -0.9760    0.0000 C   0  0  0  0  0  0  0  0  0  0  0  0
    2.4049   -1.3885    0.0000 S   0  0  0  0  0  0  0  0  0  0  0  0
    1.6905   -0.9760    0.0000 C   0  0  2  0  0  0  0  0  0  0  0  0
    0.8655   -0.9760    0.0000 C   0  0  2  0  0  0  0  0  0  0  0  0
    0.8655   -0.1510    0.0000 C   0  0  0  0  0  0  0  0  0  0  0  0
    2.4049    1.0865    0.0000 C   0  0  0  0  0  0  0  0  0  0  0  0
    3.1194    1.4990    0.0000 O   0  0  0  0  0  0  0  0  0  0  0  0
    1.6905    1.4990    0.0000 O   0  0  0  0  0  0  0  0  0  0  0  0
    3.8339    0.2615    0.0000 C   0  0  0  0  0  0  0  0  0  0  0  0
    4.5483   -0.1510    0.0000 S   0  0  0  0  0  0  0  0  0  0  0  0
    6.0165   -0.0740    0.0000 S   0  0  0  0  0  0  0  0  0  0  0  0
    5.2628    0.2615    0.0000 C   0  0  0  0  0  0  0  0  0  0  0  0
    5.3490    1.0820    0.0000 N   0  0  0  0  0  0  0  0  0  0  0  0
    6.1560    1.2535    0.0000 N   0  0  0  0  0  0  0  0  0  0  0  0
    6.5685    0.5391    0.0000 C   0  0  0  0  0  0  0  0  0  0  0  0
    0.2821    0.4324    0.0000 O   0  0  0  0  0  0  0  0  0  0  0  0
    0.2821   -1.5593    0.0000 N   0  0  0  0  0  0  0  0  0  0  0  0
   -0.5148   -1.3458    0.0000 C   0  0  0  0  0  0  0  0  0  0  0  0
   -0.7283   -0.5489    0.0000 O   0  0  0  0  0  0  0  0  0  0  0  0
   -1.0982   -1.9292    0.0000 C   0  0  0  0  0  0  0  0  0  0  0  0
   -2.1907   -0.9455    0.0000 S   0  0  0  0  0  0  0  0  0  0  0  0
   -1.8950   -1.7157    0.0000 C   0  0  0  0  0  0  0  0  0  0  0  0
   -2.5362   -2.2348    0.0000 C   0  0  0  0  0  0  0  0  0  0  0  0
   -3.2281   -1.7855    0.0000 C   0  0  0  0  0  0  0  0  0  0  0  0
   -3.0146   -0.9886    0.0000 C   0  0  0  0  0  0  0  0  0  0  0  0
   -0.8846   -2.7261    0.0000 O   0  0  0  0  0  0  0  0  0  0  0  0
  1  2  1  0  0  0  0
  2  3  2  0  0  0  0
  3  4  1  0  0  0  0
  4  5  1  0  0  0  0
  6  5  1  0  0  0  0
  6  1  1  6  0  0  0
  6  7  1  0  0  0  0
  7  8  1  0  0  0  0
  1  8  1  0  0  0  0
  9 10  1  0  0  0  0
  9 11  2  0  0  0  0
  2  9  1  0  0  0  0
 14 15  1  0  0  0  0
 15 16  2  0  0  0  0
 16 17  1  0  0  0  0
 17 18  2  0  0  0  0
 14 18  1  0  0  0  0
 13 15  1  0  0  0  0
 12 13  1  0  0  0  0
  3 12  1  0  0  0  0
  8 19  2  0  0  0  0
 21 22  2  0  0  0  0
 21 23  1  0  0  0  0
 24 25  1  0  0  0  0
 25 26  2  0  0  0  0
 26 27  1  0  0  0  0
 27 28  2  0  0  0  0
 24 28  1  0  0  0  0
 23 25  1  0  0  0  0
 23 29  1  0  0  0  0
 20 21  1  0  0  0  0
  7 20  1  1  0  0  0
M  END
>  <type>
systematic

$$$$
5-Thia-1-azabicyclo[4.2.0]oct-2-ene-2-carboxylic acid, 7-[(hydroxyphenylacetyl)amino]-8-oxo-3-[(4-pyrimidinylthio)methyl]-, [6 R-[6α,7β(R*)]]-
  Mrv2401 11022423062D          

  0  0  0     0  0            999 V3000
M  V30 BEGIN CTAB
M  V30 COUNTS 31 34 0 0 1
M  V30 BEGIN ATOM
M  V30 1 N 3.1555 -0.2818 0 0
M  V30 2 C 4.4892 0.4882 0 0
M  V30 3 C 5.8229 -0.2818 0 0
M  V30 4 C 5.8229 -1.8218 0 0
M  V30 5 S 4.4892 -2.5918 0 0
M  V30 6 C 3.1555 -1.8218 0 0 CFG=2
M  V30 7 C 1.6155 -1.8218 0 0 CFG=1
M  V30 8 C 1.6155 -0.2818 0 0
M  V30 9 C 4.4892 2.0282 0 0
M  V30 10 O 5.8229 2.7982 0 0
M  V30 11 O 3.1555 2.7982 0 0
M  V30 12 C 7.1566 0.4882 0 0
M  V30 13 S 8.4902 -0.2818 0 0
M  V30 14 C 11.1576 -0.2818 0 0
M  V30 15 C 9.8239 0.4882 0 0
M  V30 16 N 9.8239 2.0282 0 0
M  V30 17 C 11.1576 2.7982 0 0
M  V30 18 N 12.4913 2.0282 0 0
M  V30 19 C 12.4913 0.4882 0 0
M  V30 20 O 0.5266 0.8071 0 0
M  V30 21 N 0.5266 -2.9108 0 0
M  V30 22 C -0.961 -2.5122 0 0
M  V30 23 O -1.3595 -1.0247 0 0
M  V30 24 C -2.0499 -3.6011 0 0
M  V30 25 C -3.5374 -3.2026 0 0
M  V30 26 C -4.6264 -4.2915 0 0
M  V30 27 C -6.1139 -3.8929 0 0
M  V30 28 C -6.5125 -2.4054 0 0
M  V30 29 C -5.4235 -1.3165 0 0
M  V30 30 C -3.936 -1.715 0 0
M  V30 31 O -1.6513 -5.0887 0 0
M  V30 END ATOM
M  V30 BEGIN BOND
M  V30 1 1 1 2
M  V30 2 2 2 3
M  V30 3 1 3 4
M  V30 4 1 4 5
M  V30 5 1 6 5
M  V30 6 1 6 1 CFG=3
M  V30 7 1 6 7
M  V30 8 1 7 8
M  V30 9 1 1 8
M  V30 10 1 9 10
M  V30 11 2 9 11
M  V30 12 1 2 9
M  V30 13 2 14 15
M  V30 14 1 15 16
M  V30 15 2 16 17
M  V30 16 1 17 18
M  V30 17 2 18 19
M  V30 18 1 14 19
M  V30 19 1 13 15
M  V30 20 1 12 13
M  V30 21 1 3 12
M  V30 22 2 8 20
M  V30 23 2 22 23
M  V30 24 1 22 24
M  V30 25 2 25 26
M  V30 26 1 26 27
M  V30 27 2 27 28
M  V30 28 1 28 29
M  V30 29 2 29 30
M  V30 30 1 25 30
M  V30 31 1 24 25
M  V30 32 1 24 31
M  V30 33 1 21 22
M  V30 34 1 7 21 CFG=3
M  V30 END BOND
M  V30 BEGIN COLLECTION
M  V30 MDLV30/STEREL1 ATOMS=(1 7)
M  V30 END COLLECTION
M  V30 END CTAB
M  END
>  <type>
systematic

$$$$
5-Thia-1-azabicyclo[4.2.0]oct-2-ene-2-carboxylic acid, 3-[(acetyloxy)methyl]-7-[[(2-amino-5-thiazolyl)oxoacetyl]amino]-8-oxo-, (6R-trans)-
  Mrv2401 11022423072D          

 28 30  0  0  1  0            999 V2000
    1.6905   -0.1510    0.0000 N   0  0  0  0  0  0  0  0  0  0  0  0
    2.4049    0.2615    0.0000 C   0  0  0  0  0  0  0  0  0  0  0  0
    3.1194   -0.1510    0.0000 C   0  0  0  0  0  0  0  0  0  0  0  0
    3.1194   -0.9760    0.0000 C   0  0  0  0  0  0  0  0  0  0  0  0
    2.4049   -1.3885    0.0000 S   0  0  0  0  0  0  0  0  0  0  0  0
    1.6905   -0.9760    0.0000 C   0  0  2  0  0  0  0  0  0  0  0  0
    0.8655   -0.9760    0.0000 C   0  0  0  0  0  0  0  0  0  0  0  0
    0.8655   -0.1510    0.0000 C   0  0  0  0  0  0  0  0  0  0  0  0
    2.4049    1.0865    0.0000 C   0  0  0  0  0  0  0  0  0  0  0  0
    3.1194    1.4990    0.0000 O   0  0  0  0  0  0  0  0  0  0  0  0
    1.6905    1.4990    0.0000 O   0  0  0  0  0  0  0  0  0  0  0  0
    0.2821    0.4324    0.0000 O   0  0  0  0  0  0  0  0  0  0  0  0
    0.2821   -1.5593    0.0000 N   0  0  0  0  0  0  0  0  0  0  0  0
   -0.5148   -1.3458    0.0000 C   0  0  0  0  0  0  0  0  0  0  0  0
   -0.7283   -0.5489    0.0000 O   0  0  0  0  0  0  0  0  0  0  0  0
   -1.0982   -1.9292    0.0000 C   0  0  0  0  0  0  0  0  0  0  0  0
   -0.8846   -2.7261    0.0000 O   0  0  0  0  0  0  0  0  0  0  0  0
   -2.5362   -2.2348    0.0000 S   0  0  0  0  0  0  0  0  0  0  0  0
   -3.2281   -1.7855    0.0000 C   0  0  0  0  0  0  0  0  0  0  0  0
   -3.0146   -0.9886    0.0000 N   0  0  0  0  0  0  0  0  0  0  0  0
   -2.1907   -0.9455    0.0000 C   0  0  0  0  0  0  0  0  0  0  0  0
   -1.8950   -1.7157    0.0000 C   0  0  0  0  0  0  0  0  0  0  0  0
   -3.9983   -2.0812    0.0000 N   0  0  0  0  0  0  0  0  0  0  0  0
    3.8339    0.2615    0.0000 C   0  0  0  0  0  0  0  0  0  0  0  0
    3.8339    1.0865    0.0000 O   0  0  0  0  0  0  0  0  0  0  0  0
    4.5483    1.4990    0.0000 C   0  0  0  0  0  0  0  0  0  0  0  0
    4.5483    2.3240    0.0000 O   0  0  0  0  0  0  0  0  0  0  0  0
    5.2628    1.0865    0.0000 C   0  0  0  0  0  0  0  0  0  0  0  0
  1  2  1  0  0  0  0
  2  3  2  0  0  0  0
  3  4  1  0  0  0  0
  4  5  1  0  0  0  0
  6  5  1  0  0  0  0
  6  1  1  6  0  0  0
  6  7  1  0  0  0  0
  7  8  1  0  0  0  0
  1  8  1  0  0  0  0
  9 10  1  0  0  0  0
  9 11  2  0  0  0  0
  2  9  1  0  0  0  0
  8 12  2  0  0  0  0
 14 15  2  0  0  0  0
 14 16  1  0  0  0  0
 16 17  2  0  0  0  0
 18 19  1  0  0  0  0
 19 20  2  0  0  0  0
 20 21  1  0  0  0  0
 21 22  2  0  0  0  0
 18 22  1  0  0  0  0
 19 23  1  0  0  0  0
 16 22  1  0  0  0  0
 13 14  1  0  0  0  0
  7 13  1  0  0  0  0
 25 26  1  0  0  0  0
 26 27  2  0  0  0  0
 26 28  1  0  0  0  0
 24 25  1  0  0  0  0
  3 24  1  0  0  0  0
M  END
>  <type>
systematic

$$$$
3-[2-[2-[[(4-Chlorophenyl)methylene]amino]benzoyl]hydrazinylidene]-2,3-dihydro-2-oxo-1H-indole-5-carboxylic acid
  Mrv2401 11022423072D          

 32 35  0  0  0  0            999 V2000
    0.6538   -0.6979    0.0000 C   0  0  0  0  0  0  0  0  0  0  0  0
    1.1387   -0.0305    0.0000 C   0  0  0  0  0  0  0  0  0  0  0  0
    1.9233   -0.2854    0.0000 C   0  0  0  0  0  0  0  0  0  0  0  0
    2.6378    0.1271    0.0000 C   0  0  0  0  0  0  0  0  0  0  0  0
    3.3523   -0.2854    0.0000 C   0  0  0  0  0  0  0  0  0  0  0  0
    3.3523   -1.1104    0.0000 C   0  0  0  0  0  0  0  0  0  0  0  0
    2.6378   -1.5229    0.0000 C   0  0  0  0  0  0  0  0  0  0  0  0
    1.9233   -1.1104    0.0000 C   0  0  0  0  0  0  0  0  0  0  0  0
    1.1387   -1.3654    0.0000 N   0  0  0  0  0  0  0  0  0  0  0  0
    4.0668    0.1271    0.0000 C   0  0  0  0  0  0  0  0  0  0  0  0
    4.7812   -0.2854    0.0000 O   0  0  0  0  0  0  0  0  0  0  0  0
    4.0668    0.9521    0.0000 O   0  0  0  0  0  0  0  0  0  0  0  0
   -0.1712   -0.6979    0.0000 O   0  0  0  0  0  0  0  0  0  0  0  0
    0.8838    0.7541    0.0000 N   0  0  0  0  0  0  0  0  0  0  0  0
    0.0768    0.9256    0.0000 N   0  0  0  0  0  0  0  0  0  0  0  0
   -0.1781    1.7103    0.0000 C   0  0  0  0  0  0  0  0  0  0  0  0
    0.3739    2.3234    0.0000 O   0  0  0  0  0  0  0  0  0  0  0  0
   -0.9851    1.8818    0.0000 C   0  0  0  0  0  0  0  0  0  0  0  0
   -1.5371    1.2687    0.0000 C   0  0  0  0  0  0  0  0  0  0  0  0
   -2.3441    1.4402    0.0000 C   0  0  0  0  0  0  0  0  0  0  0  0
   -2.5990    2.2248    0.0000 C   0  0  0  0  0  0  0  0  0  0  0  0
   -2.0470    2.8379    0.0000 C   0  0  0  0  0  0  0  0  0  0  0  0
   -1.2400    2.6664    0.0000 C   0  0  0  0  0  0  0  0  0  0  0  0
   -1.2822    0.4841    0.0000 N   0  0  0  0  0  0  0  0  0  0  0  0
   -1.8342   -0.1290    0.0000 C   0  0  0  0  0  0  0  0  0  0  0  0
   -1.5793   -0.9136    0.0000 C   0  0  0  0  0  0  0  0  0  0  0  0
   -0.7723   -1.0852    0.0000 C   0  0  0  0  0  0  0  0  0  0  0  0
   -0.5174   -1.8698    0.0000 C   0  0  0  0  0  0  0  0  0  0  0  0
   -1.0694   -2.4829    0.0000 C   0  0  0  0  0  0  0  0  0  0  0  0
   -1.8764   -2.3114    0.0000 C   0  0  0  0  0  0  0  0  0  0  0  0
   -2.1313   -1.5267    0.0000 C   0  0  0  0  0  0  0  0  0  0  0  0
   -0.8145   -3.2675    0.0000 Cl  0  0  0  0  0  0  0  0  0  0  0  0
  1  2  1  0  0  0  0
  2  3  1  0  0  0  0
  3  4  2  0  0  0  0
  4  5  1  0  0  0  0
  5  6  2  0  0  0  0
  6  7  1  0  0  0  0
  7  8  2  0  0  0  0
  3  8  1  0  0  0  0
  8  9  1  0  0  0  0
  1  9  1  0  0  0  0
 10 11  1  0  0  0  0
 10 12  2  0  0  0  0
  5 10  1  0  0  0  0
  1 13  2  0  0  0  0
 14 15  1  4  0  0  0
 16 17  2  0  0  0  0
 16 18  1  0  0  0  0
 18 19  2  0  0  0  0
 19 20  1  0  0  0  0
 20 21  2  0  0  0  0
 21 22  1  0  0  0  0
 22 23  2  0  0  0  0
 18 23  1  0  0  0  0
 26 27  2  0  0  0  0
 27 28  1  0  0  0  0
 28 29  2  0  0  0  0
 29 30  1  0  0  0  0
 30 31  2  0  0  0  0
 26 31  1  0  0  0  0
 29 32  1  0  0  0  0
 25 26  1  0  0  0  0
 24 25  2  0  0  0  0
 24 19  1  4  0  0  0
 15 16  1  0  0  0  0
  2 14  2  0  0  0  0
M  END
>  <type>
systematic

$$$$
5-Thia-1-azabicyclo[4.2.0]oct-2-ene-2-carboxylic acid, 7-[[[2-(formylamino)-4-thiazolyl]oxoacetyl]amino]-3-methyl-8-oxo-, (6R-trans)-
  Mrv2401 11022423082D          

 26 28  0  0  1  0            999 V2000
    1.6905   -0.1510    0.0000 N   0  0  0  0  0  0  0  0  0  0  0  0
    2.4049    0.2615    0.0000 C   0  0  0  0  0  0  0  0  0  0  0  0
    3.1194   -0.1510    0.0000 C   0  0  0  0  0  0  0  0  0  0  0  0
    3.1194   -0.9760    0.0000 C   0  0  0  0  0  0  0  0  0  0  0  0
    2.4049   -1.3885    0.0000 S   0  0  0  0  0  0  0  0  0  0  0  0
    1.6905   -0.9760    0.0000 C   0  0  2  0  0  0  0  0  0  0  0  0
    0.8655   -0.9760    0.0000 C   0  0  0  0  0  0  0  0  0  0  0  0
    0.8655   -0.1510    0.0000 C   0  0  0  0  0  0  0  0  0  0  0  0
    2.4049    1.0865    0.0000 C   0  0  0  0  0  0  0  0  0  0  0  0
    3.1194    1.4990    0.0000 O   0  0  0  0  0  0  0  0  0  0  0  0
    1.6905    1.4990    0.0000 O   0  0  0  0  0  0  0  0  0  0  0  0
    0.2821    0.4324    0.0000 O   0  0  0  0  0  0  0  0  0  0  0  0
    3.8339    0.2615    0.0000 C   0  0  0  0  0  0  0  0  0  0  0  0
    0.2821   -1.5593    0.0000 N   0  0  0  0  0  0  0  0  0  0  0  0
    0.4956   -2.3562    0.0000 C   0  0  0  0  0  0  0  0  0  0  0  0
    1.2925   -2.5698    0.0000 O   0  0  0  0  0  0  0  0  0  0  0  0
   -0.0877   -2.9396    0.0000 C   0  0  0  0  0  0  0  0  0  0  0  0
   -0.8846   -2.7261    0.0000 O   0  0  0  0  0  0  0  0  0  0  0  0
    0.8528   -4.8560    0.0000 S   0  0  0  0  0  0  0  0  0  0  0  0
    0.0559   -5.0695    0.0000 C   0  0  0  0  0  0  0  0  0  0  0  0
   -0.3934   -4.3776    0.0000 N   0  0  0  0  0  0  0  0  0  0  0  0
    0.1258   -3.7365    0.0000 C   0  0  0  0  0  0  0  0  0  0  0  0
    0.8960   -4.0321    0.0000 C   0  0  0  0  0  0  0  0  0  0  0  0
   -0.2397   -5.8397    0.0000 N   0  0  0  0  0  0  0  0  0  0  0  0
   -1.0546   -5.9688    0.0000 C   0  0  0  0  0  0  0  0  0  0  0  0
   -1.3502   -6.7390    0.0000 O   0  0  0  0  0  0  0  0  0  0  0  0
  1  2  1  0  0  0  0
  2  3  2  0  0  0  0
  3  4  1  0  0  0  0
  4  5  1  0  0  0  0
  6  5  1  0  0  0  0
  6  1  1  6  0  0  0
  6  7  1  0  0  0  0
  7  8  1  0  0  0  0
  1  8  1  0  0  0  0
  9 10  1  0  0  0  0
  9 11  2  0  0  0  0
  2  9  1  0  0  0  0
  8 12  2  0  0  0  0
  3 13  1  0  0  0  0
 15 16  2  0  0  0  0
 15 17  1  0  0  0  0
 17 18  2  0  0  0  0
 19 20  1  0  0  0  0
 20 21  2  0  0  0  0
 21 22  1  0  0  0  0
 22 23  2  0  0  0  0
 19 23  1  0  0  0  0
 25 26  2  0  0  0  0
 24 25  1  0  0  0  0
 20 24  1  0  0  0  0
 17 22  1  0  0  0  0
 14 15  1  0  0  0  0
  7 14  1  0  0  0  0
M  END
>  <type>
systematic

$$$$
5-Thia-1-azabicyclo[4.2.0]oct-2-ene-2-carboxylic acid, 7-[(hydroxyphenylacetyl)amino]-8-oxo-3-[(1H-1,2,4-triazol-3-ylthio)methyl]-, [6 R-[6α,7β(R*)]]-
  Mrv2401 11022423092D          

  0  0  0     0  0            999 V3000
M  V30 BEGIN CTAB
M  V30 COUNTS 30 33 0 0 1
M  V30 BEGIN ATOM
M  V30 1 N 3.1555 -0.2818 0 0
M  V30 2 C 4.4892 0.4882 0 0
M  V30 3 C 5.8229 -0.2818 0 0
M  V30 4 C 5.8229 -1.8218 0 0
M  V30 5 S 4.4892 -2.5918 0 0
M  V30 6 C 3.1555 -1.8218 0 0 CFG=2
M  V30 7 C 1.6155 -1.8218 0 0 CFG=1
M  V30 8 C 1.6155 -0.2818 0 0
M  V30 9 C 4.4892 2.0282 0 0
M  V30 10 O 5.8229 2.7982 0 0
M  V30 11 O 3.1555 2.7982 0 0
M  V30 12 C 7.1566 0.4882 0 0
M  V30 13 S 8.4902 -0.2818 0 0
M  V30 14 N 12.2612 1.0062 0 0
M  V30 15 N 11.2308 -0.1382 0 0
M  V30 16 C 9.8239 0.4882 0 0
M  V30 17 N 9.9849 2.0197 0 0
M  V30 18 C 11.4912 2.3399 0 0
M  V30 19 O 0.5266 0.8071 0 0
M  V30 20 N 0.5266 -2.9108 0 0
M  V30 21 C -0.961 -2.5122 0 0
M  V30 22 O -1.3595 -1.0247 0 0
M  V30 23 C -2.0499 -3.6011 0 0
M  V30 24 C -3.5374 -3.2026 0 0
M  V30 25 C -4.6264 -4.2915 0 0
M  V30 26 C -6.1139 -3.8929 0 0
M  V30 27 C -6.5125 -2.4054 0 0
M  V30 28 C -5.4235 -1.3165 0 0
M  V30 29 C -3.936 -1.715 0 0
M  V30 30 O -1.6513 -5.0887 0 0
M  V30 END ATOM
M  V30 BEGIN BOND
M  V30 1 1 1 2
M  V30 2 2 2 3
M  V30 3 1 3 4
M  V30 4 1 4 5
M  V30 5 1 6 5
M  V30 6 1 6 1 CFG=3
M  V30 7 1 6 7
M  V30 8 1 7 8
M  V30 9 1 1 8
M  V30 10 1 9 10
M  V30 11 2 9 11
M  V30 12 1 2 9
M  V30 13 1 14 15
M  V30 14 2 15 16
M  V30 15 1 16 17
M  V30 16 2 17 18
M  V30 17 1 14 18
M  V30 18 1 13 16
M  V30 19 1 12 13
M  V30 20 1 3 12
M  V30 21 2 8 19
M  V30 22 2 21 22
M  V30 23 1 21 23
M  V30 24 2 24 25
M  V30 25 1 25 26
M  V30 26 2 26 27
M  V30 27 1 27 28
M  V30 28 2 28 29
M  V30 29 1 24 29
M  V30 30 1 23 24
M  V30 31 1 23 30
M  V30 32 1 20 21
M  V30 33 1 7 20 CFG=3
M  V30 END BOND
M  V30 BEGIN COLLECTION
M  V30 MDLV30/STEREL1 ATOMS=(1 7)
M  V30 END COLLECTION
M  V30 END CTAB
M  END
>  <type>
systematic

$$$$
4-[[2-[3-(4-Chlorophenyl)-4,6-dimethoxy-1H-indol-7-yl]-2-oxoacetyl]amino]benzoic acid
  Mrv2401 11022423102D          

 34 37  0  0  0  0            999 V2000
    5.4957   -4.8229    0.0000 C   0  0  0  0  0  0  0  0  0  0  0  0
    6.2102   -5.2354    0.0000 C   0  0  0  0  0  0  0  0  0  0  0  0
    6.9246   -4.8229    0.0000 O   0  0  0  0  0  0  0  0  0  0  0  0
    6.2102   -6.0604    0.0000 O   0  0  0  0  0  0  0  0  0  0  0  0
    4.7812   -5.2354    0.0000 C   0  0  0  0  0  0  0  0  0  0  0  0
    4.0668   -4.8229    0.0000 C   0  0  0  0  0  0  0  0  0  0  0  0
    4.0668   -3.9979    0.0000 C   0  0  0  0  0  0  0  0  0  0  0  0
    4.7812   -3.5854    0.0000 C   0  0  0  0  0  0  0  0  0  0  0  0
    5.4957   -3.9979    0.0000 C   0  0  0  0  0  0  0  0  0  0  0  0
    3.3523   -3.5854    0.0000 N   0  0  0  0  0  0  0  0  0  0  0  0
    3.3523   -2.7604    0.0000 C   0  0  0  0  0  0  0  0  0  0  0  0
    4.0668   -2.3479    0.0000 O   0  0  0  0  0  0  0  0  0  0  0  0
    2.6378   -2.3479    0.0000 C   0  0  0  0  0  0  0  0  0  0  0  0
    1.9233   -2.7604    0.0000 O   0  0  0  0  0  0  0  0  0  0  0  0
    0.6538   -0.6979    0.0000 C   0  0  0  0  0  0  0  0  0  0  0  0
    1.1387   -0.0305    0.0000 C   0  0  0  0  0  0  0  0  0  0  0  0
    1.9233   -0.2854    0.0000 C   0  0  0  0  0  0  0  0  0  0  0  0
    2.6378    0.1271    0.0000 C   0  0  0  0  0  0  0  0  0  0  0  0
    3.3523   -0.2854    0.0000 C   0  0  0  0  0  0  0  0  0  0  0  0
    3.3523   -1.1104    0.0000 C   0  0  0  0  0  0  0  0  0  0  0  0
    2.6378   -1.5229    0.0000 C   0  0  0  0  0  0  0  0  0  0  0  0
    1.9233   -1.1104    0.0000 C   0  0  0  0  0  0  0  0  0  0  0  0
    1.1387   -1.3654    0.0000 N   0  0  0  0  0  0  0  0  0  0  0  0
    2.6378    0.9521    0.0000 O   0  0  0  0  0  0  0  0  0  0  0  0
    1.9233    1.3646    0.0000 C   0  0  0  0  0  0  0  0  0  0  0  0
    4.0668   -1.5229    0.0000 O   0  0  0  0  0  0  0  0  0  0  0  0
    4.7812   -1.1104    0.0000 C   0  0  0  0  0  0  0  0  0  0  0  0
    0.8838    0.7541    0.0000 C   0  0  0  0  0  0  0  0  0  0  0  0
    0.0768    0.9256    0.0000 C   0  0  0  0  0  0  0  0  0  0  0  0
   -0.1781    1.7103    0.0000 C   0  0  0  0  0  0  0  0  0  0  0  0
    0.3739    2.3234    0.0000 C   0  0  0  0  0  0  0  0  0  0  0  0
    1.1809    2.1518    0.0000 C   0  0  0  0  0  0  0  0  0  0  0  0
    1.4358    1.3672    0.0000 C   0  0  0  0  0  0  0  0  0  0  0  0
    0.1190    3.1080    0.0000 Cl  0  0  0  0  0  0  0  0  0  0  0  0
  1  2  1  0  0  0  0
  2  3  1  0  0  0  0
  2  4  2  0  0  0  0
  1  5  2  0  0  0  0
  5  6  1  0  0  0  0
  6  7  2  0  0  0  0
  7  8  1  0  0  0  0
  8  9  2  0  0  0  0
  1  9  1  0  0  0  0
 11 12  2  0  0  0  0
 11 13  1  0  0  0  0
 13 14  2  0  0  0  0
 15 16  2  0  0  0  0
 16 17  1  0  0  0  0
 17 18  1  0  0  0  0
 18 19  2  0  0  0  0
 19 20  1  0  0  0  0
 20 21  2  0  0  0  0
 21 22  1  0  0  0  0
 17 22  2  0  0  0  0
 22 23  1  0  0  0  0
 15 23  1  0  0  0  0
 24 25  1  0  0  0  0
 18 24  1  0  0  0  0
 26 27  1  0  0  0  0
 20 26  1  0  0  0  0
 28 29  2  0  0  0  0
 29 30  1  0  0  0  0
 30 31  2  0  0  0  0
 31 32  1  0  0  0  0
 32 33  2  0  0  0  0
 28 33  1  0  0  0  0
 31 34  1  0  0  0  0
 16 28  1  0  0  0  0
 13 21  1  0  0  0  0
 10 11  1  0  0  0  0
  7 10  1  0  0  0  0
M  END
>  <type>
systematic

$$$$
5-Thia-1-azabicyclo[4.2.0]oct-2-ene-2-carboxylic acid, 7-[(hydroxyphenylacetyl)amino]-8-oxo-3-(1,3,4-thiadiazol-2-ylthio)-, [6 R-[6α,7β(S*)]]-
  Mrv2401 11022423102D          

  0  0  0     0  0            999 V3000
M  V30 BEGIN CTAB
M  V30 COUNTS 29 32 0 0 1
M  V30 BEGIN ATOM
M  V30 1 N 3.1555 -0.2818 0 0
M  V30 2 C 4.4892 0.4882 0 0
M  V30 3 C 5.8229 -0.2818 0 0
M  V30 4 C 5.8229 -1.8218 0 0
M  V30 5 S 4.4892 -2.5918 0 0
M  V30 6 C 3.1555 -1.8218 0 0 CFG=2
M  V30 7 C 1.6155 -1.8218 0 0 CFG=2
M  V30 8 C 1.6155 -0.2818 0 0
M  V30 9 C 4.4892 2.0282 0 0
M  V30 10 O 5.8229 2.7982 0 0
M  V30 11 O 3.1555 2.7982 0 0
M  V30 12 S 7.1566 0.4882 0 0
M  V30 13 S 8.6512 -1.8134 0 0
M  V30 14 C 8.4902 -0.2818 0 0
M  V30 15 N 9.8971 0.3445 0 0
M  V30 16 N 10.9276 -0.7999 0 0
M  V30 17 C 10.1576 -2.1336 0 0
M  V30 18 O 0.5266 0.8071 0 0
M  V30 19 N 0.5266 -2.9108 0 0
M  V30 20 C -0.961 -2.5122 0 0
M  V30 21 O -1.3595 -1.0247 0 0
M  V30 22 C -2.0499 -3.6011 0 0
M  V30 23 C -3.5374 -3.2026 0 0
M  V30 24 C -4.6264 -4.2915 0 0
M  V30 25 C -6.1139 -3.8929 0 0
M  V30 26 C -6.5125 -2.4054 0 0
M  V30 27 C -5.4235 -1.3165 0 0
M  V30 28 C -3.936 -1.715 0 0
M  V30 29 O -1.6513 -5.0887 0 0
M  V30 END ATOM
M  V30 BEGIN BOND
M  V30 1 1 1 2
M  V30 2 2 2 3
M  V30 3 1 3 4
M  V30 4 1 4 5
M  V30 5 1 6 5
M  V30 6 1 6 1 CFG=3
M  V30 7 1 6 7
M  V30 8 1 7 8
M  V30 9 1 1 8
M  V30 10 1 9 10
M  V30 11 2 9 11
M  V30 12 1 2 9
M  V30 13 1 13 14
M  V30 14 2 14 15
M  V30 15 1 15 16
M  V30 16 2 16 17
M  V30 17 1 13 17
M  V30 18 1 12 14
M  V30 19 1 3 12
M  V30 20 2 8 18
M  V30 21 2 20 21
M  V30 22 1 20 22
M  V30 23 2 23 24
M  V30 24 1 24 25
M  V30 25 2 25 26
M  V30 26 1 26 27
M  V30 27 2 27 28
M  V30 28 1 23 28
M  V30 29 1 22 23
M  V30 30 1 22 29
M  V30 31 1 19 20
M  V30 32 1 7 19 CFG=1
M  V30 END BOND
M  V30 BEGIN COLLECTION
M  V30 MDLV30/STEREL1 ATOMS=(1 7)
M  V30 END COLLECTION
M  V30 END CTAB
M  END
>  <type>
systematic

$$$$
5-Thia-1-azabicyclo[4.2.0]oct-2-ene-2-carboxylic acid, 7-[(hydroxyphenylacetyl)amino]-8-oxo-3-(1,3,4-thiadiazol-2-ylthio)-,[6 R-[6α,7β(R*)]]-
  Mrv2401 11022423112D          

  0  0  0     0  0            999 V3000
M  V30 BEGIN CTAB
M  V30 COUNTS 29 32 0 0 1
M  V30 BEGIN ATOM
M  V30 1 N 3.1555 -0.2818 0 0
M  V30 2 C 4.4892 0.4882 0 0
M  V30 3 C 5.8229 -0.2818 0 0
M  V30 4 C 5.8229 -1.8218 0 0
M  V30 5 S 4.4892 -2.5918 0 0
M  V30 6 C 3.1555 -1.8218 0 0 CFG=2
M  V30 7 C 1.6155 -1.8218 0 0 CFG=1
M  V30 8 C 1.6155 -0.2818 0 0
M  V30 9 C 4.4892 2.0282 0 0
M  V30 10 O 5.8229 2.7982 0 0
M  V30 11 O 3.1555 2.7982 0 0
M  V30 12 S 7.1566 0.4882 0 0
M  V30 13 S 8.6512 -1.8134 0 0
M  V30 14 C 8.4902 -0.2818 0 0
M  V30 15 N 9.8971 0.3445 0 0
M  V30 16 N 10.9276 -0.7999 0 0
M  V30 17 C 10.1576 -2.1336 0 0
M  V30 18 O 0.5266 0.8071 0 0
M  V30 19 N 0.5266 -2.9108 0 0
M  V30 20 C -0.961 -2.5122 0 0
M  V30 21 O -1.3595 -1.0247 0 0
M  V30 22 C -2.0499 -3.6011 0 0
M  V30 23 C -3.5374 -3.2026 0 0
M  V30 24 C -4.6264 -4.2915 0 0
M  V30 25 C -6.1139 -3.8929 0 0
M  V30 26 C -6.5125 -2.4054 0 0
M  V30 27 C -5.4235 -1.3165 0 0
M  V30 28 C -3.936 -1.715 0 0
M  V30 29 O -1.6513 -5.0887 0 0
M  V30 END ATOM
M  V30 BEGIN BOND
M  V30 1 1 1 2
M  V30 2 2 2 3
M  V30 3 1 3 4
M  V30 4 1 4 5
M  V30 5 1 6 5
M  V30 6 1 6 1 CFG=3
M  V30 7 1 6 7
M  V30 8 1 7 8
M  V30 9 1 1 8
M  V30 10 1 9 10
M  V30 11 2 9 11
M  V30 12 1 2 9
M  V30 13 1 13 14
M  V30 14 2 14 15
M  V30 15 1 15 16
M  V30 16 2 16 17
M  V30 17 1 13 17
M  V30 18 1 12 14
M  V30 19 1 3 12
M  V30 20 2 8 18
M  V30 21 2 20 21
M  V30 22 1 20 22
M  V30 23 2 23 24
M  V30 24 1 24 25
M  V30 25 2 25 26
M  V30 26 1 26 27
M  V30 27 2 27 28
M  V30 28 1 23 28
M  V30 29 1 22 23
M  V30 30 1 22 29
M  V30 31 1 19 20
M  V30 32 1 7 19 CFG=3
M  V30 END BOND
M  V30 BEGIN COLLECTION
M  V30 MDLV30/STEREL1 ATOMS=(1 7)
M  V30 END COLLECTION
M  V30 END CTAB
M  END
>  <type>
systematic

$$$$
1-[[2-[4-(3-Amino-3-carboxypropoxy)phenyl]-2-hydroxyacetyl]amino]-1,4,9,9a-tetrahydro-7-hydroxy-2-oxo-2H-azeto[1,2-b ]isoquinoline-4-carboxylic acid
  Mrv2401 11022423122D          

 36 39  0  0  0  0            999 V2000
   -5.1555    7.8564    0.0000 C   0  0  0  0  0  0  0  0  0  0  0  0
   -4.5721    7.2730    0.0000 C   0  0  0  0  0  0  0  0  0  0  0  0
   -3.7752    7.4865    0.0000 C   0  0  0  0  0  0  0  0  0  0  0  0
   -3.5617    8.2834    0.0000 C   0  0  0  0  0  0  0  0  0  0  0  0
   -4.1451    8.8668    0.0000 C   0  0  0  0  0  0  0  0  0  0  0  0
   -4.9420    8.6533    0.0000 C   0  0  0  0  0  0  0  0  0  0  0  0
   -2.7648    8.4970    0.0000 C   0  0  0  0  0  0  0  0  0  0  0  0
   -3.1919    6.9032    0.0000 C   0  0  0  0  0  0  0  0  0  0  0  0
   -1.3846    7.7001    0.0000 C   0  0  0  0  0  0  0  0  0  0  0  0
   -1.5981    6.9032    0.0000 C   0  0  0  0  0  0  0  0  0  0  0  0
   -2.3950    7.1167    0.0000 N   0  0  0  0  0  0  0  0  0  0  0  0
   -2.1815    7.9136    0.0000 C   0  0  0  0  0  0  0  0  0  0  0  0
   -3.4054    6.1063    0.0000 C   0  0  0  0  0  0  0  0  0  0  0  0
   -4.2023    5.8928    0.0000 O   0  0  0  0  0  0  0  0  0  0  0  0
   -2.8220    5.5229    0.0000 O   0  0  0  0  0  0  0  0  0  0  0  0
   -1.1856    6.1887    0.0000 O   0  0  0  0  0  0  0  0  0  0  0  0
   -5.5253    9.2366    0.0000 O   0  0  0  0  0  0  0  0  0  0  0  0
   -0.6701    8.1126    0.0000 N   0  0  0  0  0  0  0  0  0  0  0  0
    0.0444    7.7001    0.0000 C   0  0  0  0  0  0  0  0  0  0  0  0
    0.0444    6.8751    0.0000 O   0  0  0  0  0  0  0  0  0  0  0  0
    0.7589    8.1126    0.0000 C   0  0  0  0  0  0  0  0  0  0  0  0
    0.7589    8.9376    0.0000 O   0  0  0  0  0  0  0  0  0  0  0  0
    1.4733    7.7001    0.0000 C   0  0  0  0  0  0  0  0  0  0  0  0
    2.1878    8.1126    0.0000 C   0  0  0  0  0  0  0  0  0  0  0  0
    2.9023    7.7001    0.0000 C   0  0  0  0  0  0  0  0  0  0  0  0
    2.9023    6.8751    0.0000 C   0  0  0  0  0  0  0  0  0  0  0  0
    2.1878    6.4626    0.0000 C   0  0  0  0  0  0  0  0  0  0  0  0
    1.4733    6.8751    0.0000 C   0  0  0  0  0  0  0  0  0  0  0  0
    3.6167    6.4626    0.0000 O   0  0  0  0  0  0  0  0  0  0  0  0
    4.3312    6.8751    0.0000 C   0  0  0  0  0  0  0  0  0  0  0  0
    5.0457    6.4626    0.0000 C   0  0  0  0  0  0  0  0  0  0  0  0
    5.7601    6.8751    0.0000 C   0  0  0  0  0  0  0  0  0  0  0  0
    6.4746    6.4626    0.0000 C   0  0  0  0  0  0  0  0  0  0  0  0
    7.1891    6.8751    0.0000 O   0  0  0  0  0  0  0  0  0  0  0  0
    6.4746    5.6376    0.0000 O   0  0  0  0  0  0  0  0  0  0  0  0
    5.7601    7.7001    0.0000 N   0  0  0  0  0  0  0  0  0  0  0  0
  1  2  2  0  0  0  0
  2  3  1  0  0  0  0
  3  4  2  0  0  0  0
  4  5  1  0  0  0  0
  5  6  2  0  0  0  0
  1  6  1  0  0  0  0
  4  7  1  0  0  0  0
  7 12  1  0  0  0  0
 11  8  1  0  0  0  0
  3  8  1  0  0  0  0
  9 10  1  0  0  0  0
 10 11  1  0  0  0  0
 11 12  1  0  0  0  0
  9 12  1  0  0  0  0
 13 14  1  0  0  0  0
 13 15  2  0  0  0  0
  8 13  1  0  0  0  0
 10 16  2  0  0  0  0
  6 17  1  0  0  0  0
 19 20  2  0  0  0  0
 19 21  1  0  0  0  0
 21 22  1  0  0  0  0
 23 24  2  0  0  0  0
 24 25  1  0  0  0  0
 25 26  2  0  0  0  0
 26 27  1  0  0  0  0
 27 28  2  0  0  0  0
 23 28  1  0  0  0  0
 30 31  1  0  0  0  0
 31 32  1  0  0  0  0
 33 34  1  0  0  0  0
 33 35  2  0  0  0  0
 32 33  1  0  0  0  0
 32 36  1  0  0  0  0
 29 30  1  0  0  0  0
 26 29  1  0  0  0  0
 21 23  1  0  0  0  0
 18 19  1  0  0  0  0
  9 18  1  0  0  0  0
M  END
>  <type>
systematic

$$$$
5-Thia-1-azabicyclo[4.2.0]oct-2-ene-2-carboxylic acid, 7-[(hydroxyphenylacetyl)amino]-8-oxo-3-[(1H-1,2,4-triazol-3-ylthio)methyl]-, [6 R-(6α,7β)]-
  Mrv2401 11022423132D          

 30 33  0  0  1  0            999 V2000
    1.6905   -0.1510    0.0000 N   0  0  0  0  0  0  0  0  0  0  0  0
    2.4049    0.2615    0.0000 C   0  0  0  0  0  0  0  0  0  0  0  0
    3.1194   -0.1510    0.0000 C   0  0  0  0  0  0  0  0  0  0  0  0
    3.1194   -0.9760    0.0000 C   0  0  0  0  0  0  0  0  0  0  0  0
    2.4049   -1.3885    0.0000 S   0  0  0  0  0  0  0  0  0  0  0  0
    1.6905   -0.9760    0.0000 C   0  0  2  0  0  0  0  0  0  0  0  0
    0.8655   -0.9760    0.0000 C   0  0  2  0  0  0  0  0  0  0  0  0
    0.8655   -0.1510    0.0000 C   0  0  0  0  0  0  0  0  0  0  0  0
    2.4049    1.0865    0.0000 C   0  0  0  0  0  0  0  0  0  0  0  0
    3.1194    1.4990    0.0000 O   0  0  0  0  0  0  0  0  0  0  0  0
    1.6905    1.4990    0.0000 O   0  0  0  0  0  0  0  0  0  0  0  0
    3.8339    0.2615    0.0000 C   0  0  0  0  0  0  0  0  0  0  0  0
    4.5483   -0.1510    0.0000 S   0  0  0  0  0  0  0  0  0  0  0  0
    6.5685    0.5391    0.0000 N   0  0  0  0  0  0  0  0  0  0  0  0
    6.0165   -0.0740    0.0000 N   0  0  0  0  0  0  0  0  0  0  0  0
    5.2628    0.2615    0.0000 C   0  0  0  0  0  0  0  0  0  0  0  0
    5.3490    1.0820    0.0000 N   0  0  0  0  0  0  0  0  0  0  0  0
    6.1560    1.2535    0.0000 C   0  0  0  0  0  0  0  0  0  0  0  0
    0.2821    0.4324    0.0000 O   0  0  0  0  0  0  0  0  0  0  0  0
    0.2821   -1.5593    0.0000 N   0  0  0  0  0  0  0  0  0  0  0  0
   -0.5148   -1.3458    0.0000 C   0  0  0  0  0  0  0  0  0  0  0  0
   -0.7283   -0.5489    0.0000 O   0  0  0  0  0  0  0  0  0  0  0  0
   -1.0982   -1.9292    0.0000 C   0  0  0  0  0  0  0  0  0  0  0  0
   -1.8950   -1.7157    0.0000 C   0  0  0  0  0  0  0  0  0  0  0  0
   -2.4784   -2.2990    0.0000 C   0  0  0  0  0  0  0  0  0  0  0  0
   -3.2753   -2.0855    0.0000 C   0  0  0  0  0  0  0  0  0  0  0  0
   -3.4888   -1.2886    0.0000 C   0  0  0  0  0  0  0  0  0  0  0  0
   -2.9055   -0.7052    0.0000 C   0  0  0  0  0  0  0  0  0  0  0  0
   -2.1086   -0.9188    0.0000 C   0  0  0  0  0  0  0  0  0  0  0  0
   -0.8846   -2.7261    0.0000 O   0  0  0  0  0  0  0  0  0  0  0  0
  1  2  1  0  0  0  0
  2  3  2  0  0  0  0
  3  4  1  0  0  0  0
  4  5  1  0  0  0  0
  6  5  1  0  0  0  0
  6  1  1  6  0  0  0
  6  7  1  0  0  0  0
  7  8  1  0  0  0  0
  1  8  1  0  0  0  0
  9 10  1  0  0  0  0
  9 11  2  0  0  0  0
  2  9  1  0  0  0  0
 14 15  1  0  0  0  0
 15 16  2  0  0  0  0
 16 17  1  0  0  0  0
 17 18  2  0  0  0  0
 14 18  1  0  0  0  0
 13 16  1  0  0  0  0
 12 13  1  0  0  0  0
  3 12  1  0  0  0  0
  8 19  2  0  0  0  0
 21 22  2  0  0  0  0
 21 23  1  0  0  0  0
 24 25  2  0  0  0  0
 25 26  1  0  0  0  0
 26 27  2  0  0  0  0
 27 28  1  0  0  0  0
 28 29  2  0  0  0  0
 24 29  1  0  0  0  0
 23 24  1  0  0  0  0
 23 30  1  0  0  0  0
 20 21  1  0  0  0  0
  7 20  1  1  0  0  0
M  END
>  <type>
systematic

$$$$
5-Thia-1-azabicyclo[4.2.0]oct-2-ene-2-carboxylic acid, 3-[(acetyloxy)methyl]-7-[[(2-amino-4-thiazolyl)oxoacetyl]amino]-8-oxo-, (6R-trans)-
  Mrv2401 11022423142D          

 28 30  0  0  1  0            999 V2000
    1.6905   -0.1510    0.0000 N   0  0  0  0  0  0  0  0  0  0  0  0
    2.4049    0.2615    0.0000 C   0  0  0  0  0  0  0  0  0  0  0  0
    3.1194   -0.1510    0.0000 C   0  0  0  0  0  0  0  0  0  0  0  0
    3.1194   -0.9760    0.0000 C   0  0  0  0  0  0  0  0  0  0  0  0
    2.4049   -1.3885    0.0000 S   0  0  0  0  0  0  0  0  0  0  0  0
    1.6905   -0.9760    0.0000 C   0  0  2  0  0  0  0  0  0  0  0  0
    0.8655   -0.9760    0.0000 C   0  0  0  0  0  0  0  0  0  0  0  0
    0.8655   -0.1510    0.0000 C   0  0  0  0  0  0  0  0  0  0  0  0
    2.4049    1.0865    0.0000 C   0  0  0  0  0  0  0  0  0  0  0  0
    3.1194    1.4990    0.0000 O   0  0  0  0  0  0  0  0  0  0  0  0
    1.6905    1.4990    0.0000 O   0  0  0  0  0  0  0  0  0  0  0  0
    0.2821    0.4324    0.0000 O   0  0  0  0  0  0  0  0  0  0  0  0
    0.2821   -1.5593    0.0000 N   0  0  0  0  0  0  0  0  0  0  0  0
   -0.5148   -1.3458    0.0000 C   0  0  0  0  0  0  0  0  0  0  0  0
   -0.7283   -0.5489    0.0000 O   0  0  0  0  0  0  0  0  0  0  0  0
   -1.0982   -1.9292    0.0000 C   0  0  0  0  0  0  0  0  0  0  0  0
   -0.8846   -2.7261    0.0000 O   0  0  0  0  0  0  0  0  0  0  0  0
   -3.2281   -1.7855    0.0000 S   0  0  0  0  0  0  0  0  0  0  0  0
   -3.0146   -0.9886    0.0000 C   0  0  0  0  0  0  0  0  0  0  0  0
   -2.1907   -0.9455    0.0000 N   0  0  0  0  0  0  0  0  0  0  0  0
   -1.8950   -1.7157    0.0000 C   0  0  0  0  0  0  0  0  0  0  0  0
   -2.5362   -2.2348    0.0000 C   0  0  0  0  0  0  0  0  0  0  0  0
   -3.5338   -0.3475    0.0000 N   0  0  0  0  0  0  0  0  0  0  0  0
    3.8339    0.2615    0.0000 C   0  0  0  0  0  0  0  0  0  0  0  0
    3.8339    1.0865    0.0000 O   0  0  0  0  0  0  0  0  0  0  0  0
    4.5483    1.4990    0.0000 C   0  0  0  0  0  0  0  0  0  0  0  0
    4.5483    2.3240    0.0000 O   0  0  0  0  0  0  0  0  0  0  0  0
    5.2628    1.0865    0.0000 C   0  0  0  0  0  0  0  0  0  0  0  0
  1  2  1  0  0  0  0
  2  3  2  0  0  0  0
  3  4  1  0  0  0  0
  4  5  1  0  0  0  0
  6  5  1  0  0  0  0
  6  1  1  6  0  0  0
  6  7  1  0  0  0  0
  7  8  1  0  0  0  0
  1  8  1  0  0  0  0
  9 10  1  0  0  0  0
  9 11  2  0  0  0  0
  2  9  1  0  0  0  0
  8 12  2  0  0  0  0
 14 15  2  0  0  0  0
 14 16  1  0  0  0  0
 16 17  2  0  0  0  0
 18 19  1  0  0  0  0
 19 20  2  0  0  0  0
 20 21  1  0  0  0  0
 21 22  2  0  0  0  0
 18 22  1  0  0  0  0
 19 23  1  0  0  0  0
 16 21  1  0  0  0  0
 13 14  1  0  0  0  0
  7 13  1  0  0  0  0
 25 26  1  0  0  0  0
 26 27  2  0  0  0  0
 26 28  1  0  0  0  0
 24 25  1  0  0  0  0
  3 24  1  0  0  0  0
M  END
>  <type>
systematic

$$$$

  Mrv2401 11032418212D          

 31 33  0  0  1  0            999 V2000
    1.6905   -0.1510    0.0000 N   0  0  0  0  0  0  0  0  0  0  0  0
    2.4049    0.2615    0.0000 C   0  0  0  0  0  0  0  0  0  0  0  0
    3.1194   -0.1510    0.0000 C   0  0  0  0  0  0  0  0  0  0  0  0
    3.1194   -0.9760    0.0000 C   0  0  0  0  0  0  0  0  0  0  0  0
    2.4049   -1.3885    0.0000 S   0  0  0  0  0  0  0  0  0  0  0  0
    1.6905   -0.9760    0.0000 C   0  0  2  0  0  0  0  0  0  0  0  0
    0.8655   -0.9760    0.0000 C   0  0  0  0  0  0  0  0  0  0  0  0
    0.8655   -0.1510    0.0000 C   0  0  0  0  0  0  0  0  0  0  0  0
    2.4049    1.0865    0.0000 C   0  0  0  0  0  0  0  0  0  0  0  0
    3.1194    1.4990    0.0000 O   0  0  0  0  0  0  0  0  0  0  0  0
    1.6905    1.4990    0.0000 O   0  0  0  0  0  0  0  0  0  0  0  0
    0.2821    0.4324    0.0000 O   0  0  0  0  0  0  0  0  0  0  0  0
    0.2821   -1.5593    0.0000 N   0  0  0  0  0  0  0  0  0  0  0  0
   -0.5148   -1.3458    0.0000 C   0  0  0  0  0  0  0  0  0  0  0  0
   -0.7283   -0.5489    0.0000 O   0  0  0  0  0  0  0  0  0  0  0  0
   -1.0982   -1.9292    0.0000 C   0  0  0  0  0  0  0  0  0  0  0  0
   -0.8846   -2.7261    0.0000 O   0  0  0  0  0  0  0  0  0  0  0  0
   -1.8950   -1.7157    0.0000 C   0  0  0  0  0  0  0  0  0  0  0  0
    3.8339    0.2615    0.0000 C   0  0  0  0  0  0  0  0  0  0  0  0
    3.8339    1.0865    0.0000 O   0  0  0  0  0  0  0  0  0  0  0  0
    4.5483    1.4990    0.0000 C   0  0  0  0  0  0  0  0  0  0  0  0
    4.5483    2.3240    0.0000 O   0  0  0  0  0  0  0  0  0  0  0  0
    5.2628    1.0865    0.0000 C   0  0  0  0  0  0  0  0  0  0  0  0
    1.4769   -1.7729    0.0000 H   0  0  0  0  0  0  0  0  0  0  0  0
   -2.1086   -0.9188    0.0000 C   0  0  0  0  0  0  0  0  0  0  0  0
   -2.9055   -0.7052    0.0000 C   0  0  0  0  0  0  0  0  0  0  0  0
   -3.4889   -1.2886    0.0000 C   0  0  0  0  0  0  0  0  0  0  0  0
   -3.2753   -2.0855    0.0000 C   0  0  0  0  0  0  0  0  0  0  0  0
   -2.4784   -2.2990    0.0000 C   0  0  0  0  0  0  0  0  0  0  0  0
   -4.2857   -1.0751    0.0000 N   0  0  0  0  0  0  0  0  0  0  0  0
   -3.8587   -2.6689    0.0000 Cl  0  0  0  0  0  0  0  0  0  0  0  0
  1  2  1  0  0  0  0
  2  3  2  0  0  0  0
  3  4  1  0  0  0  0
  4  5  1  0  0  0  0
  6  5  1  0  0  0  0
  6  1  1  6  0  0  0
  6  7  1  0  0  0  0
  7  8  1  0  0  0  0
  1  8  1  0  0  0  0
  9 10  1  0  0  0  0
  9 11  2  0  0  0  0
  2  9  1  0  0  0  0
  8 12  2  0  0  0  0
 14 15  2  0  0  0  0
 14 16  1  0  0  0  0
 16 17  2  0  0  0  0
 16 18  1  0  0  0  0
 13 14  1  0  0  0  0
  7 13  1  0  0  0  0
 20 21  1  0  0  0  0
 21 22  2  0  0  0  0
 21 23  1  0  0  0  0
 19 20  1  0  0  0  0
  3 19  1  0  0  0  0
  6 24  1  1  0  0  0
 25 26  2  0  0  0  0
 26 27  1  0  0  0  0
 27 28  2  0  0  0  0
 28 29  1  0  0  0  0
 18 25  1  0  0  0  0
 18 29  2  0  0  0  0
 27 30  1  0  0  0  0
 28 31  1  0  0  0  0
M  END
>  <type>
systematic

$$$$
5-Thia-1-azabicyclo[4.2.0]oct-2-ene-2-carboxylic acid, 3-[(acetyloxy)methyl]-7-[[(2,3-dihydro-2-imino-3-methoxy-4-thiazolyl)oxoacetyl]amino]-8-oxo-, (6R-trans)-
  Mrv2401 11032418222D          

 30 32  0  0  1  0            999 V2000
    1.6905   -0.1510    0.0000 N   0  0  0  0  0  0  0  0  0  0  0  0
    2.4049    0.2615    0.0000 C   0  0  0  0  0  0  0  0  0  0  0  0
    3.1194   -0.1510    0.0000 C   0  0  0  0  0  0  0  0  0  0  0  0
    3.1194   -0.9760    0.0000 C   0  0  0  0  0  0  0  0  0  0  0  0
    2.4049   -1.3885    0.0000 S   0  0  0  0  0  0  0  0  0  0  0  0
    1.6905   -0.9760    0.0000 C   0  0  2  0  0  0  0  0  0  0  0  0
    0.8655   -0.9760    0.0000 C   0  0  0  0  0  0  0  0  0  0  0  0
    0.8655   -0.1510    0.0000 C   0  0  0  0  0  0  0  0  0  0  0  0
    2.4049    1.0865    0.0000 C   0  0  0  0  0  0  0  0  0  0  0  0
    3.1194    1.4990    0.0000 O   0  0  0  0  0  0  0  0  0  0  0  0
    1.6905    1.4990    0.0000 O   0  0  0  0  0  0  0  0  0  0  0  0
    0.2821    0.4324    0.0000 O   0  0  0  0  0  0  0  0  0  0  0  0
    0.2821   -1.5593    0.0000 N   0  0  0  0  0  0  0  0  0  0  0  0
   -0.5148   -1.3458    0.0000 C   0  0  0  0  0  0  0  0  0  0  0  0
   -0.7283   -0.5489    0.0000 O   0  0  0  0  0  0  0  0  0  0  0  0
   -1.0982   -1.9292    0.0000 C   0  0  0  0  0  0  0  0  0  0  0  0
   -0.8846   -2.7261    0.0000 O   0  0  0  0  0  0  0  0  0  0  0  0
   -3.2281   -1.7855    0.0000 S   0  0  0  0  0  0  0  0  0  0  0  0
   -3.0146   -0.9886    0.0000 C   0  0  0  0  0  0  0  0  0  0  0  0
   -2.1907   -0.9455    0.0000 N   0  0  0  0  0  0  0  0  0  0  0  0
   -1.8950   -1.7157    0.0000 C   0  0  0  0  0  0  0  0  0  0  0  0
   -2.5362   -2.2348    0.0000 C   0  0  0  0  0  0  0  0  0  0  0  0
   -1.7414   -0.2536    0.0000 O   0  0  0  0  0  0  0  0  0  0  0  0
   -2.1159    0.4815    0.0000 C   0  0  0  0  0  0  0  0  0  0  0  0
   -3.5338   -0.3475    0.0000 N   0  0  0  0  0  0  0  0  0  0  0  0
    3.8339    0.2615    0.0000 C   0  0  0  0  0  0  0  0  0  0  0  0
    3.8339    1.0865    0.0000 O   0  0  0  0  0  0  0  0  0  0  0  0
    4.5483    1.4990    0.0000 C   0  0  0  0  0  0  0  0  0  0  0  0
    4.5483    2.3240    0.0000 O   0  0  0  0  0  0  0  0  0  0  0  0
    5.2628    1.0865    0.0000 C   0  0  0  0  0  0  0  0  0  0  0  0
  1  2  1  0  0  0  0
  2  3  2  0  0  0  0
  3  4  1  0  0  0  0
  4  5  1  0  0  0  0
  6  5  1  0  0  0  0
  6  1  1  6  0  0  0
  6  7  1  0  0  0  0
  7  8  1  0  0  0  0
  1  8  1  0  0  0  0
  9 10  1  0  0  0  0
  9 11  2  0  0  0  0
  2  9  1  0  0  0  0
  8 12  2  0  0  0  0
 14 15  2  0  0  0  0
 14 16  1  0  0  0  0
 16 17  2  0  0  0  0
 18 19  1  0  0  0  0
 19 20  1  0  0  0  0
 20 21  1  0  0  0  0
 21 22  2  0  0  0  0
 18 22  1  0  0  0  0
 23 24  1  0  0  0  0
 20 23  1  0  0  0  0
 19 25  2  0  0  0  0
 16 21  1  0  0  0  0
 13 14  1  0  0  0  0
  7 13  1  0  0  0  0
 27 28  1  0  0  0  0
 28 29  2  0  0  0  0
 28 30  1  0  0  0  0
 26 27  1  0  0  0  0
  3 26  1  0  0  0  0
M  END
>  <type>
systematic

$$$$
2-[(Dimethylamino)methyl]-5-benzoxazolecarboxylic acid 2- (5-carboxy-1,2-dihydro-2-oxo-3H-indol-3-ylidene)hydrazide
  Mrv2401 11032418232D          

 30 33  0  0  0  0            999 V2000
   -2.5990    2.2248    0.0000 C   0  0  0  0  0  0  0  0  0  0  0  0
   -3.3527    2.5604    0.0000 O   0  0  0  0  0  0  0  0  0  0  0  0
   -3.2665    3.3809    0.0000 C   0  0  0  0  0  0  0  0  0  0  0  0
   -2.4595    3.5524    0.0000 N   0  0  0  0  0  0  0  0  0  0  0  0
   -2.0470    2.8379    0.0000 C   0  0  0  0  0  0  0  0  0  0  0  0
   -1.2400    2.6664    0.0000 C   0  0  0  0  0  0  0  0  0  0  0  0
   -0.9851    1.8818    0.0000 C   0  0  0  0  0  0  0  0  0  0  0  0
   -1.5371    1.2687    0.0000 C   0  0  0  0  0  0  0  0  0  0  0  0
   -2.3441    1.4402    0.0000 C   0  0  0  0  0  0  0  0  0  0  0  0
   -0.1781    1.7103    0.0000 C   0  0  0  0  0  0  0  0  0  0  0  0
    0.3739    2.3234    0.0000 O   0  0  0  0  0  0  0  0  0  0  0  0
    0.8838    0.7541    0.0000 N   0  0  0  0  0  0  0  0  0  0  0  0
    0.0768    0.9256    0.0000 N   0  0  0  0  0  0  0  0  0  0  0  0
    0.6538   -0.6979    0.0000 C   0  0  0  0  0  0  0  0  0  0  0  0
    1.1387   -0.0305    0.0000 C   0  0  0  0  0  0  0  0  0  0  0  0
    1.9233   -0.2854    0.0000 C   0  0  0  0  0  0  0  0  0  0  0  0
    2.6378    0.1271    0.0000 C   0  0  0  0  0  0  0  0  0  0  0  0
    3.3523   -0.2854    0.0000 C   0  0  0  0  0  0  0  0  0  0  0  0
    3.3523   -1.1104    0.0000 C   0  0  0  0  0  0  0  0  0  0  0  0
    2.6378   -1.5229    0.0000 C   0  0  0  0  0  0  0  0  0  0  0  0
    1.9233   -1.1104    0.0000 C   0  0  0  0  0  0  0  0  0  0  0  0
    1.1387   -1.3654    0.0000 N   0  0  0  0  0  0  0  0  0  0  0  0
   -0.1712   -0.6979    0.0000 O   0  0  0  0  0  0  0  0  0  0  0  0
    4.0668    0.1271    0.0000 C   0  0  0  0  0  0  0  0  0  0  0  0
    4.7812   -0.2854    0.0000 O   0  0  0  0  0  0  0  0  0  0  0  0
    4.0668    0.9521    0.0000 O   0  0  0  0  0  0  0  0  0  0  0  0
   -3.8796    3.9329    0.0000 C   0  0  0  0  0  0  0  0  0  0  0  0
   -3.7081    4.7399    0.0000 N   0  0  0  0  0  0  0  0  0  0  0  0
   -4.3211    5.2919    0.0000 C   0  0  0  0  0  0  0  0  0  0  0  0
   -2.9234    4.9948    0.0000 C   0  0  0  0  0  0  0  0  0  0  0  0
  1  2  1  0  0  0  0
  2  3  1  0  0  0  0
  3  4  2  0  0  0  0
  4  5  1  0  0  0  0
  1  5  2  0  0  0  0
  5  6  1  0  0  0  0
  6  7  2  0  0  0  0
  7  8  1  0  0  0  0
  8  9  2  0  0  0  0
  1  9  1  0  0  0  0
 10 11  2  0  0  0  0
  7 10  1  0  0  0  0
 12 13  1  4  0  0  0
 14 15  1  0  0  0  0
 15 16  1  0  0  0  0
 16 17  2  0  0  0  0
 17 18  1  0  0  0  0
 18 19  2  0  0  0  0
 19 20  1  0  0  0  0
 20 21  2  0  0  0  0
 16 21  1  0  0  0  0
 21 22  1  0  0  0  0
 14 22  1  0  0  0  0
 14 23  2  0  0  0  0
 24 25  1  0  0  0  0
 24 26  2  0  0  0  0
 18 24  1  0  0  0  0
 12 15  2  0  0  0  0
 10 13  1  0  0  0  0
 28 29  1  0  0  0  0
 28 30  1  0  0  0  0
 27 28  1  0  0  0  0
  3 27  1  0  0  0  0
M  END
>  <type>
systematic

$$$$
5-Thia-1-azabicyclo[4.2.0]oct-2-ene-2-carboxylic acid, 7-[[[2-(formylamino)-4-thiazolyl]oxoacetyl]amino]-4-methyl-8-oxo-, [6 R-(6α,7β)]-
  Mrv2401 11032418242D          

 26 28  0  0  1  0            999 V2000
    1.6905   -0.1510    0.0000 N   0  0  0  0  0  0  0  0  0  0  0  0
    2.4049    0.2615    0.0000 C   0  0  0  0  0  0  0  0  0  0  0  0
    3.1194   -0.1510    0.0000 C   0  0  0  0  0  0  0  0  0  0  0  0
    3.1194   -0.9760    0.0000 C   0  0  0  0  0  0  0  0  0  0  0  0
    2.4049   -1.3885    0.0000 S   0  0  0  0  0  0  0  0  0  0  0  0
    1.6905   -0.9760    0.0000 C   0  0  2  0  0  0  0  0  0  0  0  0
    0.8655   -0.9760    0.0000 C   0  0  2  0  0  0  0  0  0  0  0  0
    0.8655   -0.1510    0.0000 C   0  0  0  0  0  0  0  0  0  0  0  0
    2.4049    1.0865    0.0000 C   0  0  0  0  0  0  0  0  0  0  0  0
    3.1194    1.4990    0.0000 O   0  0  0  0  0  0  0  0  0  0  0  0
    1.6905    1.4990    0.0000 O   0  0  0  0  0  0  0  0  0  0  0  0
    0.2821    0.4324    0.0000 O   0  0  0  0  0  0  0  0  0  0  0  0
    3.8339   -1.3885    0.0000 C   0  0  0  0  0  0  0  0  0  0  0  0
    0.2821   -1.5593    0.0000 N   0  0  0  0  0  0  0  0  0  0  0  0
    0.4956   -2.3562    0.0000 C   0  0  0  0  0  0  0  0  0  0  0  0
    1.2925   -2.5698    0.0000 O   0  0  0  0  0  0  0  0  0  0  0  0
   -0.0877   -2.9396    0.0000 C   0  0  0  0  0  0  0  0  0  0  0  0
   -0.8846   -2.7261    0.0000 O   0  0  0  0  0  0  0  0  0  0  0  0
    0.8528   -4.8560    0.0000 S   0  0  0  0  0  0  0  0  0  0  0  0
    0.0559   -5.0695    0.0000 C   0  0  0  0  0  0  0  0  0  0  0  0
   -0.3934   -4.3776    0.0000 N   0  0  0  0  0  0  0  0  0  0  0  0
    0.1258   -3.7365    0.0000 C   0  0  0  0  0  0  0  0  0  0  0  0
    0.8960   -4.0321    0.0000 C   0  0  0  0  0  0  0  0  0  0  0  0
   -0.2397   -5.8397    0.0000 N   0  0  0  0  0  0  0  0  0  0  0  0
   -1.0546   -5.9688    0.0000 C   0  0  0  0  0  0  0  0  0  0  0  0
   -1.3502   -6.7390    0.0000 O   0  0  0  0  0  0  0  0  0  0  0  0
  1  2  1  0  0  0  0
  2  3  2  0  0  0  0
  3  4  1  0  0  0  0
  4  5  1  0  0  0  0
  6  5  1  0  0  0  0
  6  1  1  6  0  0  0
  6  7  1  0  0  0  0
  7  8  1  0  0  0  0
  1  8  1  0  0  0  0
  9 10  1  0  0  0  0
  9 11  2  0  0  0  0
  2  9  1  0  0  0  0
  8 12  2  0  0  0  0
  4 13  1  0  0  0  0
 15 16  2  0  0  0  0
 15 17  1  0  0  0  0
 17 18  2  0  0  0  0
 19 20  1  0  0  0  0
 20 21  2  0  0  0  0
 21 22  1  0  0  0  0
 22 23  2  0  0  0  0
 19 23  1  0  0  0  0
 25 26  2  0  0  0  0
 24 25  1  0  0  0  0
 20 24  1  0  0  0  0
 17 22  1  0  0  0  0
 14 15  1  0  0  0  0
  7 14  1  1  0  0  0
M  END
>  <type>
systematic

$$$$
5-Thia-1-azabicyclo[4.2.0]oct-2-ene-2-carboxylic acid, 7-[(hydroxyphenylacetyl)amino]-8-oxo-3-[[(1H-1,2,3-triazol-4-ylthio)methyl]thio]-, [6 R-[6α,7β(R*)]]-
  Mrv2401 11032418242D          

  0  0  0     0  0            999 V3000
M  V30 BEGIN CTAB
M  V30 COUNTS 31 34 0 0 1
M  V30 BEGIN ATOM
M  V30 1 N 3.1555 -0.2818 0 0
M  V30 2 C 4.4892 0.4882 0 0
M  V30 3 C 5.8229 -0.2818 0 0
M  V30 4 C 5.8229 -1.8218 0 0
M  V30 5 S 4.4892 -2.5918 0 0
M  V30 6 C 3.1555 -1.8218 0 0 CFG=2
M  V30 7 C 1.6155 -1.8218 0 0 CFG=1
M  V30 8 C 1.6155 -0.2818 0 0
M  V30 9 C 4.4892 2.0282 0 0
M  V30 10 O 5.8229 2.7982 0 0
M  V30 11 O 3.1555 2.7982 0 0
M  V30 12 S 7.1566 0.4882 0 0
M  V30 13 C 8.4902 -0.2818 0 0
M  V30 14 S 9.8239 0.4882 0 0
M  V30 15 N 13.5949 -0.7999 0 0
M  V30 16 N 12.8249 -2.1336 0 0
M  V30 17 N 11.3186 -1.8134 0 0
M  V30 18 C 11.1576 -0.2818 0 0
M  V30 19 C 12.5645 0.3445 0 0
M  V30 20 O 0.5266 0.8071 0 0
M  V30 21 N 0.5266 -2.9108 0 0
M  V30 22 C -0.961 -2.5122 0 0
M  V30 23 O -1.3595 -1.0247 0 0
M  V30 24 C -2.0499 -3.6011 0 0
M  V30 25 C -3.5374 -3.2026 0 0
M  V30 26 C -4.6264 -4.2915 0 0
M  V30 27 C -6.1139 -3.8929 0 0
M  V30 28 C -6.5125 -2.4054 0 0
M  V30 29 C -5.4235 -1.3165 0 0
M  V30 30 C -3.936 -1.715 0 0
M  V30 31 O -1.6513 -5.0887 0 0
M  V30 END ATOM
M  V30 BEGIN BOND
M  V30 1 1 1 2
M  V30 2 2 2 3
M  V30 3 1 3 4
M  V30 4 1 4 5
M  V30 5 1 6 5
M  V30 6 1 6 1 CFG=3
M  V30 7 1 6 7
M  V30 8 1 7 8
M  V30 9 1 1 8
M  V30 10 1 9 10
M  V30 11 2 9 11
M  V30 12 1 2 9
M  V30 13 1 15 16
M  V30 14 2 16 17
M  V30 15 1 17 18
M  V30 16 2 18 19
M  V30 17 1 15 19
M  V30 18 1 14 18
M  V30 19 1 13 14
M  V30 20 1 12 13
M  V30 21 1 3 12
M  V30 22 2 8 20
M  V30 23 2 22 23
M  V30 24 1 22 24
M  V30 25 2 25 26
M  V30 26 1 26 27
M  V30 27 2 27 28
M  V30 28 1 28 29
M  V30 29 2 29 30
M  V30 30 1 25 30
M  V30 31 1 24 25
M  V30 32 1 24 31
M  V30 33 1 21 22
M  V30 34 1 7 21 CFG=3
M  V30 END BOND
M  V30 BEGIN COLLECTION
M  V30 MDLV30/STEREL1 ATOMS=(1 7)
M  V30 END COLLECTION
M  V30 END CTAB
M  END
>  <type>
systematic

$$$$
3-[[2-[3-(4-Chlorophenyl)-4,6-dimethoxy-1H-indol-7-yl]-2-oxoacetyl]amino]benzoic acid
  Mrv2401 11032418252D          

 34 37  0  0  0  0            999 V2000
    4.7812   -5.2354    0.0000 C   0  0  0  0  0  0  0  0  0  0  0  0
    4.7812   -6.0604    0.0000 C   0  0  0  0  0  0  0  0  0  0  0  0
    5.4957   -6.4729    0.0000 O   0  0  0  0  0  0  0  0  0  0  0  0
    4.0668   -6.4729    0.0000 O   0  0  0  0  0  0  0  0  0  0  0  0
    4.0668   -4.8229    0.0000 C   0  0  0  0  0  0  0  0  0  0  0  0
    4.0668   -3.9979    0.0000 C   0  0  0  0  0  0  0  0  0  0  0  0
    4.7812   -3.5854    0.0000 C   0  0  0  0  0  0  0  0  0  0  0  0
    5.4957   -3.9979    0.0000 C   0  0  0  0  0  0  0  0  0  0  0  0
    5.4957   -4.8229    0.0000 C   0  0  0  0  0  0  0  0  0  0  0  0
    3.3523   -3.5854    0.0000 N   0  0  0  0  0  0  0  0  0  0  0  0
    3.3523   -2.7604    0.0000 C   0  0  0  0  0  0  0  0  0  0  0  0
    4.0668   -2.3479    0.0000 O   0  0  0  0  0  0  0  0  0  0  0  0
    2.6378   -2.3479    0.0000 C   0  0  0  0  0  0  0  0  0  0  0  0
    1.9233   -2.7604    0.0000 O   0  0  0  0  0  0  0  0  0  0  0  0
    0.6538   -0.6979    0.0000 C   0  0  0  0  0  0  0  0  0  0  0  0
    1.1387   -0.0305    0.0000 C   0  0  0  0  0  0  0  0  0  0  0  0
    1.9233   -0.2854    0.0000 C   0  0  0  0  0  0  0  0  0  0  0  0
    2.6378    0.1271    0.0000 C   0  0  0  0  0  0  0  0  0  0  0  0
    3.3523   -0.2854    0.0000 C   0  0  0  0  0  0  0  0  0  0  0  0
    3.3523   -1.1104    0.0000 C   0  0  0  0  0  0  0  0  0  0  0  0
    2.6378   -1.5229    0.0000 C   0  0  0  0  0  0  0  0  0  0  0  0
    1.9233   -1.1104    0.0000 C   0  0  0  0  0  0  0  0  0  0  0  0
    1.1387   -1.3654    0.0000 N   0  0  0  0  0  0  0  0  0  0  0  0
    2.6378    0.9521    0.0000 O   0  0  0  0  0  0  0  0  0  0  0  0
    1.9233    1.3646    0.0000 C   0  0  0  0  0  0  0  0  0  0  0  0
    4.0668   -1.5229    0.0000 O   0  0  0  0  0  0  0  0  0  0  0  0
    4.7812   -1.1104    0.0000 C   0  0  0  0  0  0  0  0  0  0  0  0
    0.8838    0.7541    0.0000 C   0  0  0  0  0  0  0  0  0  0  0  0
    0.0768    0.9256    0.0000 C   0  0  0  0  0  0  0  0  0  0  0  0
   -0.1781    1.7103    0.0000 C   0  0  0  0  0  0  0  0  0  0  0  0
    0.3739    2.3234    0.0000 C   0  0  0  0  0  0  0  0  0  0  0  0
    1.1809    2.1518    0.0000 C   0  0  0  0  0  0  0  0  0  0  0  0
    1.4358    1.3672    0.0000 C   0  0  0  0  0  0  0  0  0  0  0  0
    0.1190    3.1080    0.0000 Cl  0  0  0  0  0  0  0  0  0  0  0  0
  1  2  1  0  0  0  0
  2  3  1  0  0  0  0
  2  4  2  0  0  0  0
  1  5  2  0  0  0  0
  5  6  1  0  0  0  0
  6  7  2  0  0  0  0
  7  8  1  0  0  0  0
  8  9  2  0  0  0  0
  1  9  1  0  0  0  0
 11 12  2  0  0  0  0
 11 13  1  0  0  0  0
 13 14  2  0  0  0  0
 15 16  2  0  0  0  0
 16 17  1  0  0  0  0
 17 18  1  0  0  0  0
 18 19  2  0  0  0  0
 19 20  1  0  0  0  0
 20 21  2  0  0  0  0
 21 22  1  0  0  0  0
 17 22  2  0  0  0  0
 22 23  1  0  0  0  0
 15 23  1  0  0  0  0
 24 25  1  0  0  0  0
 18 24  1  0  0  0  0
 26 27  1  0  0  0  0
 20 26  1  0  0  0  0
 28 29  2  0  0  0  0
 29 30  1  0  0  0  0
 30 31  2  0  0  0  0
 31 32  1  0  0  0  0
 32 33  2  0  0  0  0
 28 33  1  0  0  0  0
 31 34  1  0  0  0  0
 16 28  1  0  0  0  0
 13 21  1  0  0  0  0
 10 11  1  0  0  0  0
  6 10  1  0  0  0  0
M  END
>  <type>
systematic

$$$$
5-Thia-1-azabicyclo[4.2.0]oct-2-ene-2-carboxylic acid, 7-[(hydroxyphenylacetyl)amino]-8-oxo-3-[(1,3,4-thiadiazol-2-ylthio)methyl]-, [6 R-[6α,7β(R*)]]-
  Mrv2401 11032418262D          

  0  0  0     0  0            999 V3000
M  V30 BEGIN CTAB
M  V30 COUNTS 30 33 0 0 1
M  V30 BEGIN ATOM
M  V30 1 N 3.1555 -0.2818 0 0
M  V30 2 C 4.4892 0.4882 0 0
M  V30 3 C 5.8229 -0.2818 0 0
M  V30 4 C 5.8229 -1.8218 0 0
M  V30 5 S 4.4892 -2.5918 0 0
M  V30 6 C 3.1555 -1.8218 0 0 CFG=2
M  V30 7 C 1.6155 -1.8218 0 0 CFG=1
M  V30 8 C 1.6155 -0.2818 0 0
M  V30 9 C 4.4892 2.0282 0 0
M  V30 10 O 5.8229 2.7982 0 0
M  V30 11 O 3.1555 2.7982 0 0
M  V30 12 C 7.1566 0.4882 0 0
M  V30 13 S 8.4902 -0.2818 0 0
M  V30 14 S 11.2308 -0.1382 0 0
M  V30 15 C 9.8239 0.4882 0 0
M  V30 16 N 9.9849 2.0197 0 0
M  V30 17 N 11.4912 2.3399 0 0
M  V30 18 C 12.2612 1.0062 0 0
M  V30 19 O 0.5266 0.8071 0 0
M  V30 20 N 0.5266 -2.9108 0 0
M  V30 21 C -0.961 -2.5122 0 0
M  V30 22 O -1.3595 -1.0247 0 0
M  V30 23 C -2.0499 -3.6011 0 0
M  V30 24 C -3.5374 -3.2026 0 0
M  V30 25 C -4.6264 -4.2915 0 0
M  V30 26 C -6.1139 -3.8929 0 0
M  V30 27 C -6.5125 -2.4054 0 0
M  V30 28 C -5.4235 -1.3165 0 0
M  V30 29 C -3.936 -1.715 0 0
M  V30 30 O -1.6513 -5.0887 0 0
M  V30 END ATOM
M  V30 BEGIN BOND
M  V30 1 1 1 2
M  V30 2 2 2 3
M  V30 3 1 3 4
M  V30 4 1 4 5
M  V30 5 1 6 5
M  V30 6 1 6 1 CFG=3
M  V30 7 1 6 7
M  V30 8 1 7 8
M  V30 9 1 1 8
M  V30 10 1 9 10
M  V30 11 2 9 11
M  V30 12 1 2 9
M  V30 13 1 14 15
M  V30 14 2 15 16
M  V30 15 1 16 17
M  V30 16 2 17 18
M  V30 17 1 14 18
M  V30 18 1 13 15
M  V30 19 1 12 13
M  V30 20 1 3 12
M  V30 21 2 8 19
M  V30 22 2 21 22
M  V30 23 1 21 23
M  V30 24 2 24 25
M  V30 25 1 25 26
M  V30 26 2 26 27
M  V30 27 1 27 28
M  V30 28 2 28 29
M  V30 29 1 24 29
M  V30 30 1 23 24
M  V30 31 1 23 30
M  V30 32 1 20 21
M  V30 33 1 7 20 CFG=3
M  V30 END BOND
M  V30 BEGIN COLLECTION
M  V30 MDLV30/STEREL1 ATOMS=(1 7)
M  V30 END COLLECTION
M  V30 END CTAB
M  END
>  <type>
systematic

$$$$
5-Thia-1-azabicyclo[4.2.0]oct-2-ene-2-carboxylic acid, 7-[(hydroxyphenylacetyl)amino]-8-oxo-3-[(1,3,4-thiadiazol-2-ylthio)methyl]-, [6 R-(6α,7β)]-
  Mrv2401 11032418262D          

 30 33  0  0  1  0            999 V2000
    1.6905   -0.1510    0.0000 N   0  0  0  0  0  0  0  0  0  0  0  0
    2.4049    0.2615    0.0000 C   0  0  0  0  0  0  0  0  0  0  0  0
    3.1194   -0.1510    0.0000 C   0  0  0  0  0  0  0  0  0  0  0  0
    3.1194   -0.9760    0.0000 C   0  0  0  0  0  0  0  0  0  0  0  0
    2.4049   -1.3885    0.0000 S   0  0  0  0  0  0  0  0  0  0  0  0
    1.6905   -0.9760    0.0000 C   0  0  2  0  0  0  0  0  0  0  0  0
    0.8655   -0.9760    0.0000 C   0  0  2  0  0  0  0  0  0  0  0  0
    0.8655   -0.1510    0.0000 C   0  0  0  0  0  0  0  0  0  0  0  0
    2.4049    1.0865    0.0000 C   0  0  0  0  0  0  0  0  0  0  0  0
    3.1194    1.4990    0.0000 O   0  0  0  0  0  0  0  0  0  0  0  0
    1.6905    1.4990    0.0000 O   0  0  0  0  0  0  0  0  0  0  0  0
    3.8339    0.2615    0.0000 C   0  0  0  0  0  0  0  0  0  0  0  0
    4.5483   -0.1510    0.0000 S   0  0  0  0  0  0  0  0  0  0  0  0
    6.0165   -0.0740    0.0000 S   0  0  0  0  0  0  0  0  0  0  0  0
    5.2628    0.2615    0.0000 C   0  0  0  0  0  0  0  0  0  0  0  0
    5.3490    1.0820    0.0000 N   0  0  0  0  0  0  0  0  0  0  0  0
    6.1560    1.2535    0.0000 N   0  0  0  0  0  0  0  0  0  0  0  0
    6.5685    0.5391    0.0000 C   0  0  0  0  0  0  0  0  0  0  0  0
    0.2821    0.4324    0.0000 O   0  0  0  0  0  0  0  0  0  0  0  0
    0.2821   -1.5593    0.0000 N   0  0  0  0  0  0  0  0  0  0  0  0
   -0.5148   -1.3458    0.0000 C   0  0  0  0  0  0  0  0  0  0  0  0
   -0.7283   -0.5489    0.0000 O   0  0  0  0  0  0  0  0  0  0  0  0
   -1.0982   -1.9292    0.0000 C   0  0  0  0  0  0  0  0  0  0  0  0
   -1.8950   -1.7157    0.0000 C   0  0  0  0  0  0  0  0  0  0  0  0
   -2.4784   -2.2990    0.0000 C   0  0  0  0  0  0  0  0  0  0  0  0
   -3.2753   -2.0855    0.0000 C   0  0  0  0  0  0  0  0  0  0  0  0
   -3.4888   -1.2886    0.0000 C   0  0  0  0  0  0  0  0  0  0  0  0
   -2.9055   -0.7052    0.0000 C   0  0  0  0  0  0  0  0  0  0  0  0
   -2.1086   -0.9188    0.0000 C   0  0  0  0  0  0  0  0  0  0  0  0
   -0.8846   -2.7261    0.0000 O   0  0  0  0  0  0  0  0  0  0  0  0
  1  2  1  0  0  0  0
  2  3  2  0  0  0  0
  3  4  1  0  0  0  0
  4  5  1  0  0  0  0
  6  5  1  0  0  0  0
  6  1  1  6  0  0  0
  6  7  1  0  0  0  0
  7  8  1  0  0  0  0
  1  8  1  0  0  0  0
  9 10  1  0  0  0  0
  9 11  2  0  0  0  0
  2  9  1  0  0  0  0
 14 15  1  0  0  0  0
 15 16  2  0  0  0  0
 16 17  1  0  0  0  0
 17 18  2  0  0  0  0
 14 18  1  0  0  0  0
 13 15  1  0  0  0  0
 12 13  1  0  0  0  0
  3 12  1  0  0  0  0
  8 19  2  0  0  0  0
 21 22  2  0  0  0  0
 21 23  1  0  0  0  0
 24 25  2  0  0  0  0
 25 26  1  0  0  0  0
 26 27  2  0  0  0  0
 27 28  1  0  0  0  0
 28 29  2  0  0  0  0
 24 29  1  0  0  0  0
 23 24  1  0  0  0  0
 23 30  1  0  0  0  0
 20 21  1  0  0  0  0
  7 20  1  1  0  0  0
M  END
>  <type>
systematic

$$$$
5-Thia-1-azabicyclo[4.2.0]oct-2-ene-2-carboxylic acid, 3-ethenyl-7-[[[2-(formylamino)-4-thiazolyl]oxoacetyl]amino]-8-oxo-, (6R-trans)-
  Mrv2401 11032418272D          

 27 29  0  0  1  0            999 V2000
    1.6905   -0.1510    0.0000 N   0  0  0  0  0  0  0  0  0  0  0  0
    2.4049    0.2615    0.0000 C   0  0  0  0  0  0  0  0  0  0  0  0
    3.1194   -0.1510    0.0000 C   0  0  0  0  0  0  0  0  0  0  0  0
    3.1194   -0.9760    0.0000 C   0  0  0  0  0  0  0  0  0  0  0  0
    2.4049   -1.3885    0.0000 S   0  0  0  0  0  0  0  0  0  0  0  0
    1.6905   -0.9760    0.0000 C   0  0  2  0  0  0  0  0  0  0  0  0
    0.8655   -0.9760    0.0000 C   0  0  0  0  0  0  0  0  0  0  0  0
    0.8655   -0.1510    0.0000 C   0  0  0  0  0  0  0  0  0  0  0  0
    2.4049    1.0865    0.0000 C   0  0  0  0  0  0  0  0  0  0  0  0
    3.1194    1.4990    0.0000 O   0  0  0  0  0  0  0  0  0  0  0  0
    1.6905    1.4990    0.0000 O   0  0  0  0  0  0  0  0  0  0  0  0
    0.2821    0.4324    0.0000 O   0  0  0  0  0  0  0  0  0  0  0  0
    0.2821   -1.5593    0.0000 N   0  0  0  0  0  0  0  0  0  0  0  0
   -0.5148   -1.3458    0.0000 C   0  0  0  0  0  0  0  0  0  0  0  0
   -0.7283   -0.5489    0.0000 O   0  0  0  0  0  0  0  0  0  0  0  0
   -1.0982   -1.9292    0.0000 C   0  0  0  0  0  0  0  0  0  0  0  0
   -0.8846   -2.7261    0.0000 O   0  0  0  0  0  0  0  0  0  0  0  0
   -3.2281   -1.7855    0.0000 S   0  0  0  0  0  0  0  0  0  0  0  0
   -3.0146   -0.9886    0.0000 C   0  0  0  0  0  0  0  0  0  0  0  0
   -2.1907   -0.9455    0.0000 N   0  0  0  0  0  0  0  0  0  0  0  0
   -1.8950   -1.7157    0.0000 C   0  0  0  0  0  0  0  0  0  0  0  0
   -2.5362   -2.2348    0.0000 C   0  0  0  0  0  0  0  0  0  0  0  0
   -3.5338   -0.3475    0.0000 N   0  0  0  0  0  0  0  0  0  0  0  0
   -4.3486   -0.4765    0.0000 C   0  0  0  0  0  0  0  0  0  0  0  0
   -4.8678    0.1646    0.0000 O   0  0  0  0  0  0  0  0  0  0  0  0
    3.8339    0.2615    0.0000 C   0  0  0  0  0  0  0  0  0  0  0  0
    3.8339    1.0865    0.0000 C   0  0  0  0  0  0  0  0  0  0  0  0
  1  2  1  0  0  0  0
  2  3  2  0  0  0  0
  3  4  1  0  0  0  0
  4  5  1  0  0  0  0
  6  5  1  0  0  0  0
  6  1  1  6  0  0  0
  6  7  1  0  0  0  0
  7  8  1  0  0  0  0
  1  8  1  0  0  0  0
  9 10  1  0  0  0  0
  9 11  2  0  0  0  0
  2  9  1  0  0  0  0
  8 12  2  0  0  0  0
 14 15  2  0  0  0  0
 14 16  1  0  0  0  0
 16 17  2  0  0  0  0
 18 19  1  0  0  0  0
 19 20  2  0  0  0  0
 20 21  1  0  0  0  0
 21 22  2  0  0  0  0
 18 22  1  0  0  0  0
 24 25  2  0  0  0  0
 23 24  1  0  0  0  0
 19 23  1  0  0  0  0
 16 21  1  0  0  0  0
 13 14  1  0  0  0  0
  7 13  1  0  0  0  0
 26 27  2  0  0  0  0
  3 26  1  0  0  0  0
M  END
>  <type>
systematic

$$$$

  Mrv2401 11032418302D          

 27 29  0  0  1  0            999 V2000
    1.6905   -0.1510    0.0000 N   0  0  0  0  0  0  0  0  0  0  0  0
    2.4049    0.2615    0.0000 C   0  0  0  0  0  0  0  0  0  0  0  0
    3.1194   -0.1510    0.0000 C   0  0  0  0  0  0  0  0  0  0  0  0
    3.1194   -0.9760    0.0000 C   0  0  0  0  0  0  0  0  0  0  0  0
    2.4049   -1.3885    0.0000 S   0  0  0  0  0  0  0  0  0  0  0  0
    1.6905   -0.9760    0.0000 C   0  0  2  0  0  0  0  0  0  0  0  0
    0.8655   -0.9760    0.0000 C   0  0  0  0  0  0  0  0  0  0  0  0
    0.8655   -0.1510    0.0000 C   0  0  0  0  0  0  0  0  0  0  0  0
    2.4049    1.0865    0.0000 C   0  0  0  0  0  0  0  0  0  0  0  0
    3.1194    1.4990    0.0000 O   0  0  0  0  0  0  0  0  0  0  0  0
    1.6905    1.4990    0.0000 O   0  0  0  0  0  0  0  0  0  0  0  0
    0.2821    0.4324    0.0000 O   0  0  0  0  0  0  0  0  0  0  0  0
    0.2821   -1.5593    0.0000 N   0  0  0  0  0  0  0  0  0  0  0  0
   -0.5148   -1.3458    0.0000 C   0  0  0  0  0  0  0  0  0  0  0  0
   -0.7283   -0.5489    0.0000 O   0  0  0  0  0  0  0  0  0  0  0  0
   -1.0982   -1.9292    0.0000 C   0  0  0  0  0  0  0  0  0  0  0  0
   -0.8846   -2.7261    0.0000 O   0  0  0  0  0  0  0  0  0  0  0  0
   -3.2281   -1.7855    0.0000 N   0  0  0  0  0  0  0  0  0  0  0  0
   -3.0146   -0.9886    0.0000 C   0  0  0  0  0  0  0  0  0  0  0  0
   -2.1907   -0.9455    0.0000 S   0  0  0  0  0  0  0  0  0  0  0  0
   -1.8950   -1.7157    0.0000 C   0  0  0  0  0  0  0  0  0  0  0  0
   -2.5362   -2.2348    0.0000 C   0  0  0  0  0  0  0  0  0  0  0  0
   -3.5338   -0.3475    0.0000 N   0  0  0  0  0  0  0  0  0  0  0  0
   -4.3486   -0.4765    0.0000 C   0  0  0  0  0  0  0  0  0  0  0  0
   -4.8678    0.1646    0.0000 O   0  0  0  0  0  0  0  0  0  0  0  0
    3.8339    0.2615    0.0000 C   0  0  0  0  0  0  0  0  0  0  0  0
    3.8339    1.0865    0.0000 C   0  0  0  0  0  0  0  0  0  0  0  0
  1  2  1  0  0  0  0
  2  3  2  0  0  0  0
  3  4  1  0  0  0  0
  4  5  1  0  0  0  0
  6  5  1  0  0  0  0
  6  1  1  6  0  0  0
  6  7  1  0  0  0  0
  7  8  1  0  0  0  0
  1  8  1  0  0  0  0
  9 10  1  0  0  0  0
  9 11  2  0  0  0  0
  2  9  1  0  0  0  0
  8 12  2  0  0  0  0
 14 15  2  0  0  0  0
 14 16  1  0  0  0  0
 16 17  2  0  0  0  0
 18 19  2  0  0  0  0
 19 20  1  0  0  0  0
 20 21  1  0  0  0  0
 21 22  2  0  0  0  0
 18 22  1  0  0  0  0
 24 25  2  0  0  0  0
 23 24  1  0  0  0  0
 19 23  1  0  0  0  0
 16 21  1  0  0  0  0
 13 14  1  0  0  0  0
  7 13  1  0  0  0  0
 26 27  2  0  0  0  0
  3 26  1  0  0  0  0
M  END
>  <type>
systematic

$$$$
5-Thia-1-azabicyclo[4.2.0]oct-2-ene-2-carboxylic acid, 7-[[(2-amino-4-thiazolyl)oxoacetyl]amino]-3-[(methylthio)methyl]-8-oxo-, (6R-trans)-
  Mrv2401 11032418312D          

 26 28  0  0  1  0            999 V2000
    1.6905   -0.1510    0.0000 N   0  0  0  0  0  0  0  0  0  0  0  0
    2.4049    0.2615    0.0000 C   0  0  0  0  0  0  0  0  0  0  0  0
    3.1194   -0.1510    0.0000 C   0  0  0  0  0  0  0  0  0  0  0  0
    3.1194   -0.9760    0.0000 C   0  0  0  0  0  0  0  0  0  0  0  0
    2.4049   -1.3885    0.0000 S   0  0  0  0  0  0  0  0  0  0  0  0
    1.6905   -0.9760    0.0000 C   0  0  2  0  0  0  0  0  0  0  0  0
    0.8655   -0.9760    0.0000 C   0  0  0  0  0  0  0  0  0  0  0  0
    0.8655   -0.1510    0.0000 C   0  0  0  0  0  0  0  0  0  0  0  0
    2.4049    1.0865    0.0000 C   0  0  0  0  0  0  0  0  0  0  0  0
    3.1194    1.4990    0.0000 O   0  0  0  0  0  0  0  0  0  0  0  0
    1.6905    1.4990    0.0000 O   0  0  0  0  0  0  0  0  0  0  0  0
    0.2821    0.4324    0.0000 O   0  0  0  0  0  0  0  0  0  0  0  0
    3.8339    0.2615    0.0000 C   0  0  0  0  0  0  0  0  0  0  0  0
    4.5483   -0.1510    0.0000 S   0  0  0  0  0  0  0  0  0  0  0  0
    5.2628    0.2615    0.0000 C   0  0  0  0  0  0  0  0  0  0  0  0
    0.2821   -1.5593    0.0000 N   0  0  0  0  0  0  0  0  0  0  0  0
    0.4956   -2.3562    0.0000 C   0  0  0  0  0  0  0  0  0  0  0  0
    1.2925   -2.5698    0.0000 O   0  0  0  0  0  0  0  0  0  0  0  0
   -0.0877   -2.9396    0.0000 C   0  0  0  0  0  0  0  0  0  0  0  0
   -0.8846   -2.7261    0.0000 O   0  0  0  0  0  0  0  0  0  0  0  0
    0.8528   -4.8560    0.0000 S   0  0  0  0  0  0  0  0  0  0  0  0
    0.0559   -5.0695    0.0000 C   0  0  0  0  0  0  0  0  0  0  0  0
   -0.3934   -4.3776    0.0000 N   0  0  0  0  0  0  0  0  0  0  0  0
    0.1258   -3.7365    0.0000 C   0  0  0  0  0  0  0  0  0  0  0  0
    0.8960   -4.0321    0.0000 C   0  0  0  0  0  0  0  0  0  0  0  0
   -0.2397   -5.8397    0.0000 N   0  0  0  0  0  0  0  0  0  0  0  0
  1  2  1  0  0  0  0
  2  3  2  0  0  0  0
  3  4  1  0  0  0  0
  4  5  1  0  0  0  0
  6  5  1  0  0  0  0
  6  1  1  6  0  0  0
  6  7  1  0  0  0  0
  7  8  1  0  0  0  0
  1  8  1  0  0  0  0
  9 10  1  0  0  0  0
  9 11  2  0  0  0  0
  2  9  1  0  0  0  0
  8 12  2  0  0  0  0
 14 15  1  0  0  0  0
 13 14  1  0  0  0  0
  3 13  1  0  0  0  0
 17 18  2  0  0  0  0
 17 19  1  0  0  0  0
 19 20  2  0  0  0  0
 21 22  1  0  0  0  0
 22 23  2  0  0  0  0
 23 24  1  0  0  0  0
 24 25  2  0  0  0  0
 21 25  1  0  0  0  0
 22 26  1  0  0  0  0
 19 24  1  0  0  0  0
 16 17  1  0  0  0  0
  7 16  1  0  0  0  0
M  END
>  <type>
systematic

$$$$
2-[[2-[3-(4-Fluorophenyl)-4,6-dimethoxy-1H-indol-7-yl]-2-oxoacetyl]amino]benzoic acid
  Mrv2401 11032418322D          

 34 37  0  0  0  0            999 V2000
    4.0668   -4.8229    0.0000 C   0  0  0  0  0  0  0  0  0  0  0  0
    3.3523   -5.2354    0.0000 C   0  0  0  0  0  0  0  0  0  0  0  0
    3.3523   -6.0604    0.0000 O   0  0  0  0  0  0  0  0  0  0  0  0
    2.6378   -4.8229    0.0000 O   0  0  0  0  0  0  0  0  0  0  0  0
    4.0668   -3.9979    0.0000 C   0  0  0  0  0  0  0  0  0  0  0  0
    4.7812   -3.5854    0.0000 C   0  0  0  0  0  0  0  0  0  0  0  0
    5.4957   -3.9979    0.0000 C   0  0  0  0  0  0  0  0  0  0  0  0
    5.4957   -4.8229    0.0000 C   0  0  0  0  0  0  0  0  0  0  0  0
    4.7812   -5.2354    0.0000 C   0  0  0  0  0  0  0  0  0  0  0  0
    3.3523   -3.5854    0.0000 N   0  0  0  0  0  0  0  0  0  0  0  0
    3.3523   -2.7604    0.0000 C   0  0  0  0  0  0  0  0  0  0  0  0
    4.0668   -2.3479    0.0000 O   0  0  0  0  0  0  0  0  0  0  0  0
    2.6378   -2.3479    0.0000 C   0  0  0  0  0  0  0  0  0  0  0  0
    1.9233   -2.7604    0.0000 O   0  0  0  0  0  0  0  0  0  0  0  0
    0.6538   -0.6979    0.0000 C   0  0  0  0  0  0  0  0  0  0  0  0
    1.1387   -0.0305    0.0000 C   0  0  0  0  0  0  0  0  0  0  0  0
    1.9233   -0.2854    0.0000 C   0  0  0  0  0  0  0  0  0  0  0  0
    2.6378    0.1271    0.0000 C   0  0  0  0  0  0  0  0  0  0  0  0
    3.3523   -0.2854    0.0000 C   0  0  0  0  0  0  0  0  0  0  0  0
    3.3523   -1.1104    0.0000 C   0  0  0  0  0  0  0  0  0  0  0  0
    2.6378   -1.5229    0.0000 C   0  0  0  0  0  0  0  0  0  0  0  0
    1.9233   -1.1104    0.0000 C   0  0  0  0  0  0  0  0  0  0  0  0
    1.1387   -1.3654    0.0000 N   0  0  0  0  0  0  0  0  0  0  0  0
    2.6378    0.9521    0.0000 O   0  0  0  0  0  0  0  0  0  0  0  0
    1.9233    1.3646    0.0000 C   0  0  0  0  0  0  0  0  0  0  0  0
    4.0668   -1.5229    0.0000 O   0  0  0  0  0  0  0  0  0  0  0  0
    4.7812   -1.1104    0.0000 C   0  0  0  0  0  0  0  0  0  0  0  0
    0.8838    0.7541    0.0000 C   0  0  0  0  0  0  0  0  0  0  0  0
    0.0768    0.9256    0.0000 C   0  0  0  0  0  0  0  0  0  0  0  0
   -0.1781    1.7103    0.0000 C   0  0  0  0  0  0  0  0  0  0  0  0
    0.3739    2.3234    0.0000 C   0  0  0  0  0  0  0  0  0  0  0  0
    1.1809    2.1518    0.0000 C   0  0  0  0  0  0  0  0  0  0  0  0
    1.4358    1.3672    0.0000 C   0  0  0  0  0  0  0  0  0  0  0  0
    0.1190    3.1080    0.0000 F   0  0  0  0  0  0  0  0  0  0  0  0
  1  2  1  0  0  0  0
  2  3  1  0  0  0  0
  2  4  2  0  0  0  0
  1  5  2  0  0  0  0
  5  6  1  0  0  0  0
  6  7  2  0  0  0  0
  7  8  1  0  0  0  0
  8  9  2  0  0  0  0
  1  9  1  0  0  0  0
 11 12  2  0  0  0  0
 11 13  1  0  0  0  0
 13 14  2  0  0  0  0
 15 16  2  0  0  0  0
 16 17  1  0  0  0  0
 17 18  1  0  0  0  0
 18 19  2  0  0  0  0
 19 20  1  0  0  0  0
 20 21  2  0  0  0  0
 21 22  1  0  0  0  0
 17 22  2  0  0  0  0
 22 23  1  0  0  0  0
 15 23  1  0  0  0  0
 24 25  1  0  0  0  0
 18 24  1  0  0  0  0
 26 27  1  0  0  0  0
 20 26  1  0  0  0  0
 28 29  2  0  0  0  0
 29 30  1  0  0  0  0
 30 31  2  0  0  0  0
 31 32  1  0  0  0  0
 32 33  2  0  0  0  0
 28 33  1  0  0  0  0
 31 34  1  0  0  0  0
 16 28  1  0  0  0  0
 13 21  1  0  0  0  0
 10 11  1  0  0  0  0
  5 10  1  0  0  0  0
M  END
>  <type>
systematic

$$$$
2,3-Dihydro-2-oxo-3-[2-[2-[[2-(1-piperidinyl)acetyl]amino]benzoyl]hydrazinylidene]-1H-indole-5-carboxylic acid
  Mrv2401 11032418332D          

 33 36  0  0  0  0            999 V2000
    0.6538   -0.6979    0.0000 C   0  0  0  0  0  0  0  0  0  0  0  0
    1.1387   -0.0305    0.0000 C   0  0  0  0  0  0  0  0  0  0  0  0
    1.9233   -0.2854    0.0000 C   0  0  0  0  0  0  0  0  0  0  0  0
    2.6378    0.1271    0.0000 C   0  0  0  0  0  0  0  0  0  0  0  0
    3.3523   -0.2854    0.0000 C   0  0  0  0  0  0  0  0  0  0  0  0
    3.3523   -1.1104    0.0000 C   0  0  0  0  0  0  0  0  0  0  0  0
    2.6378   -1.5229    0.0000 C   0  0  0  0  0  0  0  0  0  0  0  0
    1.9233   -1.1104    0.0000 C   0  0  0  0  0  0  0  0  0  0  0  0
    1.1387   -1.3654    0.0000 N   0  0  0  0  0  0  0  0  0  0  0  0
    4.0668    0.1271    0.0000 C   0  0  0  0  0  0  0  0  0  0  0  0
    4.7812   -0.2854    0.0000 O   0  0  0  0  0  0  0  0  0  0  0  0
    4.0668    0.9521    0.0000 O   0  0  0  0  0  0  0  0  0  0  0  0
    0.8838    0.7541    0.0000 N   0  0  0  0  0  0  0  0  0  0  0  0
    0.0768    0.9256    0.0000 N   0  0  0  0  0  0  0  0  0  0  0  0
   -0.1781    1.7103    0.0000 C   0  0  0  0  0  0  0  0  0  0  0  0
    0.3739    2.3234    0.0000 O   0  0  0  0  0  0  0  0  0  0  0  0
   -0.9851    1.8818    0.0000 C   0  0  0  0  0  0  0  0  0  0  0  0
   -1.5371    1.2687    0.0000 C   0  0  0  0  0  0  0  0  0  0  0  0
   -2.3441    1.4402    0.0000 C   0  0  0  0  0  0  0  0  0  0  0  0
   -2.5990    2.2248    0.0000 C   0  0  0  0  0  0  0  0  0  0  0  0
   -2.0470    2.8379    0.0000 C   0  0  0  0  0  0  0  0  0  0  0  0
   -1.2400    2.6664    0.0000 C   0  0  0  0  0  0  0  0  0  0  0  0
   -1.2822    0.4841    0.0000 N   0  0  0  0  0  0  0  0  0  0  0  0
   -1.8342   -0.1290    0.0000 C   0  0  0  0  0  0  0  0  0  0  0  0
   -2.6412    0.0425    0.0000 O   0  0  0  0  0  0  0  0  0  0  0  0
   -1.5793   -0.9136    0.0000 C   0  0  0  0  0  0  0  0  0  0  0  0
   -3.2354   -2.7529    0.0000 C   0  0  0  0  0  0  0  0  0  0  0  0
   -3.4903   -1.9683    0.0000 C   0  0  0  0  0  0  0  0  0  0  0  0
   -2.9383   -1.3552    0.0000 C   0  0  0  0  0  0  0  0  0  0  0  0
   -2.1313   -1.5267    0.0000 N   0  0  0  0  0  0  0  0  0  0  0  0
   -1.8764   -2.3114    0.0000 C   0  0  0  0  0  0  0  0  0  0  0  0
   -2.4284   -2.9244    0.0000 C   0  0  0  0  0  0  0  0  0  0  0  0
   -0.1712   -0.6979    0.0000 O   0  0  0  0  0  0  0  0  0  0  0  0
  1  2  1  0  0  0  0
  2  3  1  0  0  0  0
  3  4  2  0  0  0  0
  4  5  1  0  0  0  0
  5  6  2  0  0  0  0
  6  7  1  0  0  0  0
  7  8  2  0  0  0  0
  3  8  1  0  0  0  0
  8  9  1  0  0  0  0
  1  9  1  0  0  0  0
 10 11  1  0  0  0  0
 10 12  2  0  0  0  0
  5 10  1  0  0  0  0
 13 14  1  4  0  0  0
 15 16  2  0  0  0  0
 15 17  1  0  0  0  0
 17 18  2  0  0  0  0
 18 19  1  0  0  0  0
 19 20  2  0  0  0  0
 20 21  1  0  0  0  0
 21 22  2  0  0  0  0
 17 22  1  0  0  0  0
 24 25  2  0  0  0  0
 24 26  1  0  0  0  0
 27 28  1  0  0  0  0
 28 29  1  0  0  0  0
 29 30  1  0  0  0  0
 30 31  1  0  0  0  0
 31 32  1  0  0  0  0
 27 32  1  0  0  0  0
 26 30  1  0  0  0  0
 23 24  1  0  0  0  0
 18 23  1  0  0  0  0
 14 15  1  0  0  0  0
  2 13  2  0  0  0  0
  1 33  2  0  0  0  0
M  END
>  <type>
systematic

$$$$
5-Thia-1-azabicyclo[4.2.0]oct-2-ene-2-carboxylic acid, 3-[[(1,6-dihydro-6-oxo-3-pyridazinyl)thio]methyl]-7-[(hydroxyphenylacetyl)amino]-8-oxo-, [6 R-[6α,7β(R*)]]-
  Mrv2401 11032418342D          

  0  0  0     0  0            999 V3000
M  V30 BEGIN CTAB
M  V30 COUNTS 32 35 0 0 1
M  V30 BEGIN ATOM
M  V30 1 N 3.1555 -0.2818 0 0
M  V30 2 C 4.4892 0.4882 0 0
M  V30 3 C 5.8229 -0.2818 0 0
M  V30 4 C 5.8229 -1.8218 0 0
M  V30 5 S 4.4892 -2.5918 0 0
M  V30 6 C 3.1555 -1.8218 0 0 CFG=2
M  V30 7 C 1.6155 -1.8218 0 0 CFG=1
M  V30 8 C 1.6155 -0.2818 0 0
M  V30 9 C 4.4892 2.0282 0 0
M  V30 10 O 5.8229 2.7982 0 0
M  V30 11 O 3.1555 2.7982 0 0
M  V30 12 O 0.5266 0.8071 0 0
M  V30 13 N 0.5266 -2.9108 0 0
M  V30 14 C -0.961 -2.5122 0 0
M  V30 15 O -1.3595 -1.0247 0 0
M  V30 16 C -2.0499 -3.6011 0 0
M  V30 17 C -3.5374 -3.2026 0 0
M  V30 18 C -4.6264 -4.2915 0 0
M  V30 19 C -6.1139 -3.8929 0 0
M  V30 20 C -6.5125 -2.4054 0 0
M  V30 21 C -5.4235 -1.3165 0 0
M  V30 22 C -3.936 -1.715 0 0
M  V30 23 O -1.6513 -5.0887 0 0
M  V30 24 C 7.1566 0.4882 0 0
M  V30 25 S 8.4902 -0.2818 0 0
M  V30 26 N 12.4913 0.4882 0 0
M  V30 27 N 11.1576 -0.2818 0 0
M  V30 28 C 9.8239 0.4882 0 0
M  V30 29 C 9.8239 2.0282 0 0
M  V30 30 C 11.1576 2.7982 0 0
M  V30 31 C 12.4913 2.0282 0 0
M  V30 32 O 13.825 2.7982 0 0
M  V30 END ATOM
M  V30 BEGIN BOND
M  V30 1 1 1 2
M  V30 2 2 2 3
M  V30 3 1 3 4
M  V30 4 1 4 5
M  V30 5 1 6 5
M  V30 6 1 6 1 CFG=3
M  V30 7 1 6 7
M  V30 8 1 7 8
M  V30 9 1 1 8
M  V30 10 1 9 10
M  V30 11 2 9 11
M  V30 12 1 2 9
M  V30 13 2 8 12
M  V30 14 2 14 15
M  V30 15 1 14 16
M  V30 16 2 17 18
M  V30 17 1 18 19
M  V30 18 2 19 20
M  V30 19 1 20 21
M  V30 20 2 21 22
M  V30 21 1 17 22
M  V30 22 1 16 17
M  V30 23 1 16 23
M  V30 24 1 13 14
M  V30 25 1 7 13 CFG=3
M  V30 26 1 26 27
M  V30 27 2 27 28
M  V30 28 1 28 29
M  V30 29 2 29 30
M  V30 30 1 30 31
M  V30 31 1 26 31
M  V30 32 2 31 32
M  V30 33 1 25 28
M  V30 34 1 24 25
M  V30 35 1 3 24
M  V30 END BOND
M  V30 BEGIN COLLECTION
M  V30 MDLV30/STEREL1 ATOMS=(1 7)
M  V30 END COLLECTION
M  V30 END CTAB
M  END
>  <type>
systematic

$$$$
3-[[2-[1-[(4-Fluorophenyl)methyl]-4-methoxy-1H-indol-3-yl]-2-oxoacetyl]amino]-2-thiophenecarboxylic acid
  Mrv2401 11032418342D          

 32 35  0  0  0  0            999 V2000
    2.2759    3.9844    0.0000 S   0  0  0  0  0  0  0  0  0  0  0  0
    1.5614    3.5719    0.0000 C   0  0  0  0  0  0  0  0  0  0  0  0
    1.7329    2.7649    0.0000 C   0  0  0  0  0  0  0  0  0  0  0  0
    2.5534    2.6787    0.0000 C   0  0  0  0  0  0  0  0  0  0  0  0
    2.8889    3.4324    0.0000 C   0  0  0  0  0  0  0  0  0  0  0  0
    0.8077    3.9075    0.0000 C   0  0  0  0  0  0  0  0  0  0  0  0
    0.7215    4.7279    0.0000 O   0  0  0  0  0  0  0  0  0  0  0  0
    0.1403    3.4225    0.0000 O   0  0  0  0  0  0  0  0  0  0  0  0
    1.1809    2.1518    0.0000 N   0  0  0  0  0  0  0  0  0  0  0  0
    1.4358    1.3672    0.0000 C   0  0  0  0  0  0  0  0  0  0  0  0
    2.2428    1.1957    0.0000 O   0  0  0  0  0  0  0  0  0  0  0  0
    0.8838    0.7541    0.0000 C   0  0  0  0  0  0  0  0  0  0  0  0
    0.0768    0.9256    0.0000 O   0  0  0  0  0  0  0  0  0  0  0  0
    0.6538   -0.6979    0.0000 C   0  0  0  0  0  0  0  0  0  0  0  0
    1.1387   -0.0305    0.0000 C   0  0  0  0  0  0  0  0  0  0  0  0
    1.9233   -0.2854    0.0000 C   0  0  0  0  0  0  0  0  0  0  0  0
    2.6378    0.1271    0.0000 C   0  0  0  0  0  0  0  0  0  0  0  0
    3.3523   -0.2854    0.0000 C   0  0  0  0  0  0  0  0  0  0  0  0
    3.3523   -1.1104    0.0000 C   0  0  0  0  0  0  0  0  0  0  0  0
    2.6378   -1.5229    0.0000 C   0  0  0  0  0  0  0  0  0  0  0  0
    1.9233   -1.1104    0.0000 C   0  0  0  0  0  0  0  0  0  0  0  0
    1.1387   -1.3654    0.0000 N   0  0  0  0  0  0  0  0  0  0  0  0
    2.6378    0.9521    0.0000 O   0  0  0  0  0  0  0  0  0  0  0  0
    3.3523    1.3646    0.0000 C   0  0  0  0  0  0  0  0  0  0  0  0
    0.8838   -2.1500    0.0000 C   0  0  0  0  0  0  0  0  0  0  0  0
    0.0768   -2.3215    0.0000 C   0  0  0  0  0  0  0  0  0  0  0  0
   -0.1781   -3.1062    0.0000 C   0  0  0  0  0  0  0  0  0  0  0  0
   -0.9851   -3.2777    0.0000 C   0  0  0  0  0  0  0  0  0  0  0  0
   -1.5371   -2.6646    0.0000 C   0  0  0  0  0  0  0  0  0  0  0  0
   -1.2822   -1.8800    0.0000 C   0  0  0  0  0  0  0  0  0  0  0  0
   -0.4752   -1.7084    0.0000 C   0  0  0  0  0  0  0  0  0  0  0  0
   -2.3441   -2.8361    0.0000 F   0  0  0  0  0  0  0  0  0  0  0  0
  1  2  1  0  0  0  0
  2  3  2  0  0  0  0
  3  4  1  0  0  0  0
  4  5  2  0  0  0  0
  1  5  1  0  0  0  0
  6  7  1  0  0  0  0
  6  8  2  0  0  0  0
  2  6  1  0  0  0  0
 10 11  2  0  0  0  0
 10 12  1  0  0  0  0
 12 13  2  0  0  0  0
 14 15  2  0  0  0  0
 15 16  1  0  0  0  0
 16 17  1  0  0  0  0
 17 18  2  0  0  0  0
 18 19  1  0  0  0  0
 19 20  2  0  0  0  0
 20 21  1  0  0  0  0
 16 21  2  0  0  0  0
 21 22  1  0  0  0  0
 14 22  1  0  0  0  0
 23 24  1  0  0  0  0
 17 23  1  0  0  0  0
 26 27  2  0  0  0  0
 27 28  1  0  0  0  0
 28 29  2  0  0  0  0
 29 30  1  0  0  0  0
 30 31  2  0  0  0  0
 26 31  1  0  0  0  0
 29 32  1  0  0  0  0
 25 26  1  0  0  0  0
 22 25  1  0  0  0  0
 12 15  1  0  0  0  0
  9 10  1  0  0  0  0
  3  9  1  0  0  0  0
M  END
>  <type>
systematic

$$$$
(6R,7R)-7-[[(2S)-2-Hydroxy-2-phenylacetyl]amino]-8-oxo-3-[(1H-pyrazol-4-ylmethyl)thio]-5-thia-1-azabicyclo[4.2.0]oct-2-ene-2-carboxylic acid
  Mrv2401 11032418352D          

 30 33  0  0  1  0            999 V2000
    1.6905   -0.1510    0.0000 N   0  0  0  0  0  0  0  0  0  0  0  0
    2.4049    0.2615    0.0000 C   0  0  0  0  0  0  0  0  0  0  0  0
    3.1194   -0.1510    0.0000 C   0  0  0  0  0  0  0  0  0  0  0  0
    3.1194   -0.9760    0.0000 C   0  0  0  0  0  0  0  0  0  0  0  0
    2.4049   -1.3885    0.0000 S   0  0  0  0  0  0  0  0  0  0  0  0
    1.6905   -0.9760    0.0000 C   0  0  2  0  0  0  0  0  0  0  0  0
    0.8655   -0.9760    0.0000 C   0  0  1  0  0  0  0  0  0  0  0  0
    0.8655   -0.1510    0.0000 C   0  0  0  0  0  0  0  0  0  0  0  0
    2.4049    1.0865    0.0000 C   0  0  0  0  0  0  0  0  0  0  0  0
    3.1194    1.4990    0.0000 O   0  0  0  0  0  0  0  0  0  0  0  0
    1.6905    1.4990    0.0000 O   0  0  0  0  0  0  0  0  0  0  0  0
    3.8339    0.2615    0.0000 S   0  0  0  0  0  0  0  0  0  0  0  0
    4.5483   -0.1510    0.0000 C   0  0  0  0  0  0  0  0  0  0  0  0
    6.1560    1.2535    0.0000 N   0  0  0  0  0  0  0  0  0  0  0  0
    6.5685    0.5391    0.0000 N   0  0  0  0  0  0  0  0  0  0  0  0
    6.0165   -0.0740    0.0000 C   0  0  0  0  0  0  0  0  0  0  0  0
    5.2628    0.2615    0.0000 C   0  0  0  0  0  0  0  0  0  0  0  0
    5.3490    1.0820    0.0000 C   0  0  0  0  0  0  0  0  0  0  0  0
    0.2821    0.4324    0.0000 O   0  0  0  0  0  0  0  0  0  0  0  0
    0.2821   -1.5593    0.0000 N   0  0  0  0  0  0  0  0  0  0  0  0
   -0.5148   -1.3458    0.0000 C   0  0  0  0  0  0  0  0  0  0  0  0
   -0.7283   -0.5489    0.0000 O   0  0  0  0  0  0  0  0  0  0  0  0
   -1.0982   -1.9292    0.0000 C   0  0  2  0  0  0  0  0  0  0  0  0
   -1.8950   -1.7157    0.0000 C   0  0  0  0  0  0  0  0  0  0  0  0
   -2.4784   -2.2990    0.0000 C   0  0  0  0  0  0  0  0  0  0  0  0
   -3.2753   -2.0855    0.0000 C   0  0  0  0  0  0  0  0  0  0  0  0
   -3.4888   -1.2886    0.0000 C   0  0  0  0  0  0  0  0  0  0  0  0
   -2.9055   -0.7052    0.0000 C   0  0  0  0  0  0  0  0  0  0  0  0
   -2.1086   -0.9188    0.0000 C   0  0  0  0  0  0  0  0  0  0  0  0
   -0.8846   -2.7261    0.0000 O   0  0  0  0  0  0  0  0  0  0  0  0
  1  2  1  0  0  0  0
  2  3  2  0  0  0  0
  3  4  1  0  0  0  0
  4  5  1  0  0  0  0
  6  5  1  0  0  0  0
  6  1  1  6  0  0  0
  6  7  1  0  0  0  0
  7  8  1  0  0  0  0
  1  8  1  0  0  0  0
  9 10  1  0  0  0  0
  9 11  2  0  0  0  0
  2  9  1  0  0  0  0
 14 15  1  0  0  0  0
 15 16  2  0  0  0  0
 16 17  1  0  0  0  0
 17 18  2  0  0  0  0
 14 18  1  0  0  0  0
 13 17  1  0  0  0  0
 12 13  1  0  0  0  0
  3 12  1  0  0  0  0
  8 19  2  0  0  0  0
 21 22  2  0  0  0  0
 23 21  1  0  0  0  0
 24 25  2  0  0  0  0
 25 26  1  0  0  0  0
 26 27  2  0  0  0  0
 27 28  1  0  0  0  0
 28 29  2  0  0  0  0
 24 29  1  0  0  0  0
 23 24  1  0  0  0  0
 23 30  1  1  0  0  0
 20 21  1  0  0  0  0
  7 20  1  6  0  0  0
M  END
>  <type>
systematic

$$$$
(6R,7R)-7-[[(2R)-2-Hydroxy-2-phenylacetyl]amino]-8-oxo-3-[(1H-pyrazol-4-ylmethyl)thio]-5-thia-1-azabicyclo[4.2.0]oct-2-ene-2-carboxylic acid
  Mrv2401 11032418362D          

 30 33  0  0  1  0            999 V2000
    1.6905   -0.1510    0.0000 N   0  0  0  0  0  0  0  0  0  0  0  0
    2.4049    0.2615    0.0000 C   0  0  0  0  0  0  0  0  0  0  0  0
    3.1194   -0.1510    0.0000 C   0  0  0  0  0  0  0  0  0  0  0  0
    3.1194   -0.9760    0.0000 C   0  0  0  0  0  0  0  0  0  0  0  0
    2.4049   -1.3885    0.0000 S   0  0  0  0  0  0  0  0  0  0  0  0
    1.6905   -0.9760    0.0000 C   0  0  2  0  0  0  0  0  0  0  0  0
    0.8655   -0.9760    0.0000 C   0  0  1  0  0  0  0  0  0  0  0  0
    0.8655   -0.1510    0.0000 C   0  0  0  0  0  0  0  0  0  0  0  0
    2.4049    1.0865    0.0000 C   0  0  0  0  0  0  0  0  0  0  0  0
    3.1194    1.4990    0.0000 O   0  0  0  0  0  0  0  0  0  0  0  0
    1.6905    1.4990    0.0000 O   0  0  0  0  0  0  0  0  0  0  0  0
    3.8339    0.2615    0.0000 S   0  0  0  0  0  0  0  0  0  0  0  0
    4.5483   -0.1510    0.0000 C   0  0  0  0  0  0  0  0  0  0  0  0
    6.1560    1.2535    0.0000 N   0  0  0  0  0  0  0  0  0  0  0  0
    6.5685    0.5391    0.0000 N   0  0  0  0  0  0  0  0  0  0  0  0
    6.0165   -0.0740    0.0000 C   0  0  0  0  0  0  0  0  0  0  0  0
    5.2628    0.2615    0.0000 C   0  0  0  0  0  0  0  0  0  0  0  0
    5.3490    1.0820    0.0000 C   0  0  0  0  0  0  0  0  0  0  0  0
    0.2821    0.4324    0.0000 O   0  0  0  0  0  0  0  0  0  0  0  0
    0.2821   -1.5593    0.0000 N   0  0  0  0  0  0  0  0  0  0  0  0
   -0.5148   -1.3458    0.0000 C   0  0  0  0  0  0  0  0  0  0  0  0
   -0.7283   -0.5489    0.0000 O   0  0  0  0  0  0  0  0  0  0  0  0
   -1.0982   -1.9292    0.0000 C   0  0  1  0  0  0  0  0  0  0  0  0
   -1.8950   -1.7157    0.0000 C   0  0  0  0  0  0  0  0  0  0  0  0
   -2.4784   -2.2990    0.0000 C   0  0  0  0  0  0  0  0  0  0  0  0
   -3.2753   -2.0855    0.0000 C   0  0  0  0  0  0  0  0  0  0  0  0
   -3.4888   -1.2886    0.0000 C   0  0  0  0  0  0  0  0  0  0  0  0
   -2.9055   -0.7052    0.0000 C   0  0  0  0  0  0  0  0  0  0  0  0
   -2.1086   -0.9188    0.0000 C   0  0  0  0  0  0  0  0  0  0  0  0
   -0.8846   -2.7261    0.0000 O   0  0  0  0  0  0  0  0  0  0  0  0
  1  2  1  0  0  0  0
  2  3  2  0  0  0  0
  3  4  1  0  0  0  0
  4  5  1  0  0  0  0
  6  5  1  0  0  0  0
  6  1  1  6  0  0  0
  6  7  1  0  0  0  0
  7  8  1  0  0  0  0
  1  8  1  0  0  0  0
  9 10  1  0  0  0  0
  9 11  2  0  0  0  0
  2  9  1  0  0  0  0
 14 15  1  0  0  0  0
 15 16  2  0  0  0  0
 16 17  1  0  0  0  0
 17 18  2  0  0  0  0
 14 18  1  0  0  0  0
 13 17  1  0  0  0  0
 12 13  1  0  0  0  0
  3 12  1  0  0  0  0
  8 19  2  0  0  0  0
 21 22  2  0  0  0  0
 23 21  1  0  0  0  0
 24 25  2  0  0  0  0
 25 26  1  0  0  0  0
 26 27  2  0  0  0  0
 27 28  1  0  0  0  0
 28 29  2  0  0  0  0
 24 29  1  0  0  0  0
 23 24  1  0  0  0  0
 23 30  1  6  0  0  0
 20 21  1  0  0  0  0
  7 20  1  6  0  0  0
M  END
>  <type>
systematic

$$$$
5-Thia-1-azabicyclo[4.2.0]oct-2-ene-2-carboxylic acid, 3-[[(1,6-dihydro-6-oxo-3-pyridazinyl)thio]methyl]-7-[(hydroxyphenylacetyl)amino]-8-oxo-, [6 R-(6α,7β)]-
  Mrv2401 11032418372D          

 32 35  0  0  1  0            999 V2000
    1.6905   -0.1510    0.0000 N   0  0  0  0  0  0  0  0  0  0  0  0
    2.4049    0.2615    0.0000 C   0  0  0  0  0  0  0  0  0  0  0  0
    3.1194   -0.1510    0.0000 C   0  0  0  0  0  0  0  0  0  0  0  0
    3.1194   -0.9760    0.0000 C   0  0  0  0  0  0  0  0  0  0  0  0
    2.4049   -1.3885    0.0000 S   0  0  0  0  0  0  0  0  0  0  0  0
    1.6905   -0.9760    0.0000 C   0  0  2  0  0  0  0  0  0  0  0  0
    0.8655   -0.9760    0.0000 C   0  0  2  0  0  0  0  0  0  0  0  0
    0.8655   -0.1510    0.0000 C   0  0  0  0  0  0  0  0  0  0  0  0
    2.4049    1.0865    0.0000 C   0  0  0  0  0  0  0  0  0  0  0  0
    3.1194    1.4990    0.0000 O   0  0  0  0  0  0  0  0  0  0  0  0
    1.6905    1.4990    0.0000 O   0  0  0  0  0  0  0  0  0  0  0  0
    0.2821    0.4324    0.0000 O   0  0  0  0  0  0  0  0  0  0  0  0
    0.2821   -1.5593    0.0000 N   0  0  0  0  0  0  0  0  0  0  0  0
   -0.5148   -1.3458    0.0000 C   0  0  0  0  0  0  0  0  0  0  0  0
   -0.7283   -0.5489    0.0000 O   0  0  0  0  0  0  0  0  0  0  0  0
   -1.0982   -1.9292    0.0000 C   0  0  0  0  0  0  0  0  0  0  0  0
   -1.8950   -1.7157    0.0000 C   0  0  0  0  0  0  0  0  0  0  0  0
   -2.4784   -2.2990    0.0000 C   0  0  0  0  0  0  0  0  0  0  0  0
   -3.2753   -2.0855    0.0000 C   0  0  0  0  0  0  0  0  0  0  0  0
   -3.4888   -1.2886    0.0000 C   0  0  0  0  0  0  0  0  0  0  0  0
   -2.9055   -0.7052    0.0000 C   0  0  0  0  0  0  0  0  0  0  0  0
   -2.1086   -0.9188    0.0000 C   0  0  0  0  0  0  0  0  0  0  0  0
   -0.8846   -2.7261    0.0000 O   0  0  0  0  0  0  0  0  0  0  0  0
    3.8339    0.2615    0.0000 C   0  0  0  0  0  0  0  0  0  0  0  0
    4.5483   -0.1510    0.0000 S   0  0  0  0  0  0  0  0  0  0  0  0
    6.6918    0.2615    0.0000 N   0  0  0  0  0  0  0  0  0  0  0  0
    5.9773   -0.1510    0.0000 N   0  0  0  0  0  0  0  0  0  0  0  0
    5.2628    0.2615    0.0000 C   0  0  0  0  0  0  0  0  0  0  0  0
    5.2628    1.0865    0.0000 C   0  0  0  0  0  0  0  0  0  0  0  0
    5.9773    1.4990    0.0000 C   0  0  0  0  0  0  0  0  0  0  0  0
    6.6918    1.0865    0.0000 C   0  0  0  0  0  0  0  0  0  0  0  0
    7.4062    1.4990    0.0000 O   0  0  0  0  0  0  0  0  0  0  0  0
  1  2  1  0  0  0  0
  2  3  2  0  0  0  0
  3  4  1  0  0  0  0
  4  5  1  0  0  0  0
  6  5  1  0  0  0  0
  6  1  1  6  0  0  0
  6  7  1  0  0  0  0
  7  8  1  0  0  0  0
  1  8  1  0  0  0  0
  9 10  1  0  0  0  0
  9 11  2  0  0  0  0
  2  9  1  0  0  0  0
  8 12  2  0  0  0  0
 14 15  2  0  0  0  0
 14 16  1  0  0  0  0
 17 18  2  0  0  0  0
 18 19  1  0  0  0  0
 19 20  2  0  0  0  0
 20 21  1  0  0  0  0
 21 22  2  0  0  0  0
 17 22  1  0  0  0  0
 16 17  1  0  0  0  0
 16 23  1  0  0  0  0
 13 14  1  0  0  0  0
  7 13  1  1  0  0  0
 26 27  1  0  0  0  0
 27 28  2  0  0  0  0
 28 29  1  0  0  0  0
 29 30  2  0  0  0  0
 30 31  1  0  0  0  0
 26 31  1  0  0  0  0
 31 32  2  0  0  0  0
 25 28  1  0  0  0  0
 24 25  1  0  0  0  0
  3 24  1  0  0  0  0
M  END
>  <type>
systematic

$$$$
2-[(Diethylamino)methyl]-5-benzoxazolecarboxylic acid 2- (5-carboxy-1,2-dihydro-2-oxo-3H-indol-3-ylidene)hydrazide
  Mrv2401 11032418372D          

 32 35  0  0  0  0            999 V2000
   -2.5990    2.2248    0.0000 C   0  0  0  0  0  0  0  0  0  0  0  0
   -3.3527    2.5604    0.0000 O   0  0  0  0  0  0  0  0  0  0  0  0
   -3.2665    3.3809    0.0000 C   0  0  0  0  0  0  0  0  0  0  0  0
   -2.4595    3.5524    0.0000 N   0  0  0  0  0  0  0  0  0  0  0  0
   -2.0470    2.8379    0.0000 C   0  0  0  0  0  0  0  0  0  0  0  0
   -1.2400    2.6664    0.0000 C   0  0  0  0  0  0  0  0  0  0  0  0
   -0.9851    1.8818    0.0000 C   0  0  0  0  0  0  0  0  0  0  0  0
   -1.5371    1.2687    0.0000 C   0  0  0  0  0  0  0  0  0  0  0  0
   -2.3441    1.4402    0.0000 C   0  0  0  0  0  0  0  0  0  0  0  0
   -0.1781    1.7103    0.0000 C   0  0  0  0  0  0  0  0  0  0  0  0
    0.3739    2.3234    0.0000 O   0  0  0  0  0  0  0  0  0  0  0  0
    0.8838    0.7541    0.0000 N   0  0  0  0  0  0  0  0  0  0  0  0
    0.0768    0.9256    0.0000 N   0  0  0  0  0  0  0  0  0  0  0  0
    0.6538   -0.6979    0.0000 C   0  0  0  0  0  0  0  0  0  0  0  0
    1.1387   -0.0305    0.0000 C   0  0  0  0  0  0  0  0  0  0  0  0
    1.9233   -0.2854    0.0000 C   0  0  0  0  0  0  0  0  0  0  0  0
    2.6378    0.1271    0.0000 C   0  0  0  0  0  0  0  0  0  0  0  0
    3.3523   -0.2854    0.0000 C   0  0  0  0  0  0  0  0  0  0  0  0
    3.3523   -1.1104    0.0000 C   0  0  0  0  0  0  0  0  0  0  0  0
    2.6378   -1.5229    0.0000 C   0  0  0  0  0  0  0  0  0  0  0  0
    1.9233   -1.1104    0.0000 C   0  0  0  0  0  0  0  0  0  0  0  0
    1.1387   -1.3654    0.0000 N   0  0  0  0  0  0  0  0  0  0  0  0
   -0.1712   -0.6979    0.0000 O   0  0  0  0  0  0  0  0  0  0  0  0
    4.0668    0.1271    0.0000 C   0  0  0  0  0  0  0  0  0  0  0  0
    4.7812   -0.2854    0.0000 O   0  0  0  0  0  0  0  0  0  0  0  0
    4.0668    0.9521    0.0000 O   0  0  0  0  0  0  0  0  0  0  0  0
   -3.8796    3.9329    0.0000 C   0  0  0  0  0  0  0  0  0  0  0  0
   -6.0619    3.9751    0.0000 C   0  0  0  0  0  0  0  0  0  0  0  0
   -5.2773    4.2300    0.0000 C   0  0  0  0  0  0  0  0  0  0  0  0
   -4.6642    3.6780    0.0000 N   0  0  0  0  0  0  0  0  0  0  0  0
   -4.8357    2.8710    0.0000 C   0  0  0  0  0  0  0  0  0  0  0  0
   -4.2226    2.3190    0.0000 C   0  0  0  0  0  0  0  0  0  0  0  0
  1  2  1  0  0  0  0
  2  3  1  0  0  0  0
  3  4  2  0  0  0  0
  4  5  1  0  0  0  0
  1  5  2  0  0  0  0
  5  6  1  0  0  0  0
  6  7  2  0  0  0  0
  7  8  1  0  0  0  0
  8  9  2  0  0  0  0
  1  9  1  0  0  0  0
 10 11  2  0  0  0  0
  7 10  1  0  0  0  0
 12 13  1  4  0  0  0
 14 15  1  0  0  0  0
 15 16  1  0  0  0  0
 16 17  2  0  0  0  0
 17 18  1  0  0  0  0
 18 19  2  0  0  0  0
 19 20  1  0  0  0  0
 20 21  2  0  0  0  0
 16 21  1  0  0  0  0
 21 22  1  0  0  0  0
 14 22  1  0  0  0  0
 14 23  2  0  0  0  0
 24 25  1  0  0  0  0
 24 26  2  0  0  0  0
 18 24  1  0  0  0  0
 12 15  2  0  0  0  0
 10 13  1  0  0  0  0
 28 29  1  0  0  0  0
 29 30  1  0  0  0  0
 30 31  1  0  0  0  0
 31 32  1  0  0  0  0
 27 30  1  0  0  0  0
  3 27  1  0  0  0  0
M  END
>  <type>
systematic

$$$$

  Mrv2401 11032418432D          

 32 35  0  0  1  0            999 V2000
    1.6905   -0.1510    0.0000 N   0  0  0  0  0  0  0  0  0  0  0  0
    2.4049    0.2615    0.0000 C   0  0  0  0  0  0  0  0  0  0  0  0
    3.1194   -0.1510    0.0000 C   0  0  0  0  0  0  0  0  0  0  0  0
    3.1194   -0.9760    0.0000 C   0  0  0  0  0  0  0  0  0  0  0  0
    2.4049   -1.3885    0.0000 S   0  0  0  0  0  0  0  0  0  0  0  0
    1.6905   -0.9760    0.0000 C   0  0  0  0  0  0  0  0  0  0  0  0
    0.8655   -0.9760    0.0000 C   0  0  0  0  0  0  0  0  0  0  0  0
    0.8655   -0.1510    0.0000 C   0  0  0  0  0  0  0  0  0  0  0  0
    2.4049    1.0865    0.0000 C   0  0  0  0  0  0  0  0  0  0  0  0
    3.1194    1.4990    0.0000 O   0  0  0  0  0  0  0  0  0  0  0  0
    1.6905    1.4990    0.0000 O   0  0  0  0  0  0  0  0  0  0  0  0
    3.8339    0.2615    0.0000 C   0  0  0  0  0  0  0  0  0  0  0  0
    4.5483   -0.1510    0.0000 S   0  0  0  0  0  0  0  0  0  0  0  0
    5.2628    0.2615    0.0000 C   0  0  0  0  0  0  0  0  0  0  0  0
    0.2821    0.4324    0.0000 O   0  0  0  0  0  0  0  0  0  0  0  0
    0.2821   -1.5593    0.0000 N   0  0  0  0  0  0  0  0  0  0  0  0
   -0.5148   -1.3458    0.0000 C   0  0  0  0  0  0  0  0  0  0  0  0
   -0.7283   -0.5489    0.0000 O   0  0  0  0  0  0  0  0  0  0  0  0
   -1.0982   -1.9292    0.0000 C   0  0  0  0  0  0  0  0  0  0  0  0
   -1.8950   -1.7157    0.0000 C   0  0  0  0  0  0  0  0  0  0  0  0
   -2.4784   -2.2990    0.0000 C   0  0  0  0  0  0  0  0  0  0  0  0
   -3.2753   -2.0855    0.0000 C   0  0  0  0  0  0  0  0  0  0  0  0
   -3.4888   -1.2886    0.0000 C   0  0  0  0  0  0  0  0  0  0  0  0
   -2.9055   -0.7052    0.0000 C   0  0  0  0  0  0  0  0  0  0  0  0
   -2.1086   -0.9188    0.0000 C   0  0  0  0  0  0  0  0  0  0  0  0
   -0.8846   -2.7261    0.0000 O   0  0  0  0  0  0  0  0  0  0  0  0
    5.9773   -0.1510    0.0000 C   0  0  0  0  0  0  0  0  0  0  0  0
    6.6918    0.2615    0.0000 C   0  0  0  0  0  0  0  0  0  0  0  0
    6.6918    1.0865    0.0000 C   0  0  0  0  0  0  0  0  0  0  0  0
    5.9773    1.4990    0.0000 N   0  0  0  0  0  0  0  0  0  0  0  0
    5.2628    1.0865    0.0000 C   0  0  0  0  0  0  0  0  0  0  0  0
    5.9773    2.3240    0.0000 O   0  0  0  0  0  0  0  0  0  0  0  0
  1  2  1  0  0  0  0
  2  3  2  0  0  0  0
  3  4  1  0  0  0  0
  4  5  1  0  0  0  0
  6  5  1  0  0  0  0
  6  1  1  0  0  0  0
  6  7  1  0  0  0  0
  7  8  1  0  0  0  0
  1  8  1  0  0  0  0
  9 10  1  0  0  0  0
  9 11  2  0  0  0  0
  2  9  1  0  0  0  0
 13 14  1  0  0  0  0
 12 13  1  0  0  0  0
  3 12  1  0  0  0  0
  8 15  2  0  0  0  0
 17 18  2  0  0  0  0
 19 17  1  0  0  0  0
 20 21  2  0  0  0  0
 21 22  1  0  0  0  0
 22 23  2  0  0  0  0
 23 24  1  0  0  0  0
 24 25  2  0  0  0  0
 20 25  1  0  0  0  0
 19 20  1  0  0  0  0
 19 26  1  0  0  0  0
 16 17  1  0  0  0  0
  7 16  1  0  0  0  0
 27 28  2  0  0  0  0
 28 29  1  0  0  0  0
 29 30  2  0  0  0  0
 30 31  1  0  0  0  0
 14 27  1  0  0  0  0
 14 31  2  0  0  0  0
 30 32  2  0  0  0  0
M  END
>  <type>
systematic

$$$$
cis-4-[[2-[4-[[(4-Fluoro-3-methylphenyl)amino]carbonyl]-1,3,5-trimethyl-1H-pyrrol-2-yl]-2-oxoacetyl]amino]cyclohexanecarboxylic acid
  Mrv2401 11032418442D          

  0  0  0     0  0            999 V3000
M  V30 BEGIN CTAB
M  V30 COUNTS 33 35 0 0 1
M  V30 BEGIN ATOM
M  V30 1 C 8.1232 1.452 0 0 CFG=1
M  V30 2 C 9.2677 0.4215 0 0
M  V30 3 C 8.9475 -1.0848 0 0
M  V30 4 C 7.4829 -1.5607 0 0 CFG=2
M  V30 5 C 6.3384 -0.5303 0 0
M  V30 6 C 6.6586 0.9761 0 0
M  V30 7 C 8.4434 2.9583 0 0
M  V30 8 O 7.299 3.9888 0 0
M  V30 9 O 9.908 3.4342 0 0
M  V30 10 N 7.1627 -3.0671 0 0
M  V30 11 C 5.6981 -3.543 0 0
M  V30 12 O 4.5536 -2.5125 0 0
M  V30 13 C 5.3779 -5.0493 0 0
M  V30 14 O 6.5223 -6.0798 0 0
M  V30 15 N 2.6674 -4.62 0 0
M  V30 16 C 3.9132 -5.5252 0 0
M  V30 17 C 3.4374 -6.9898 0 0
M  V30 18 C 1.8974 -6.9898 0 0
M  V30 19 C 1.4215 -5.5252 0 0
M  V30 20 C 2.6674 -3.08 0 0
M  V30 21 C 4.3425 -8.2357 0 0
M  V30 22 C -0.0432 -5.0493 0 0
M  V30 23 C 0.9922 -8.2357 0 0
M  V30 24 O -0.5394 -8.0747 0 0
M  V30 25 N 1.6185 -9.6426 0 0
M  V30 26 C 0.7134 -10.8884 0 0
M  V30 27 C 1.3397 -12.2953 0 0
M  V30 28 C 0.4345 -13.5412 0 0
M  V30 29 C -1.097 -13.3802 0 0
M  V30 30 C -1.7234 -11.9734 0 0
M  V30 31 C -0.8182 -10.7275 0 0
M  V30 32 C 1.0609 -14.9481 0 0
M  V30 33 F -2.0022 -14.6261 0 0
M  V30 END ATOM
M  V30 BEGIN BOND
M  V30 1 1 1 2
M  V30 2 1 2 3
M  V30 3 1 3 4
M  V30 4 1 4 5
M  V30 5 1 5 6
M  V30 6 1 1 6
M  V30 7 1 7 8
M  V30 8 2 7 9
M  V30 9 1 1 7 CFG=1
M  V30 10 2 11 12
M  V30 11 1 11 13
M  V30 12 2 13 14
M  V30 13 1 15 16
M  V30 14 2 16 17
M  V30 15 1 17 18
M  V30 16 2 18 19
M  V30 17 1 15 19
M  V30 18 1 15 20
M  V30 19 1 17 21
M  V30 20 1 19 22
M  V30 21 2 23 24
M  V30 22 2 26 27
M  V30 23 1 27 28
M  V30 24 2 28 29
M  V30 25 1 29 30
M  V30 26 2 30 31
M  V30 27 1 26 31
M  V30 28 1 28 32
M  V30 29 1 29 33
M  V30 30 1 25 26
M  V30 31 1 23 25
M  V30 32 1 18 23
M  V30 33 1 13 16
M  V30 34 1 10 11
M  V30 35 1 4 10 CFG=1
M  V30 END BOND
M  V30 BEGIN COLLECTION
M  V30 MDLV30/STEREL1 ATOMS=(2 1 4)
M  V30 END COLLECTION
M  V30 END CTAB
M  END
>  <Ambiguous>
ambiguous

>  <type>
systematic

$$$$
5-Thia-1-azabicyclo[4.2.0]oct-2-ene-2-carboxylic acid, 7-[(hydroxyphenylacetyl)amino]-8-oxo-3-[(1,2,4-thiadiazol-5-ylthio)methyl]-, [6 R-[6α,7β(R*)]]-
  Mrv2401 11032418452D          

  0  0  0     0  0            999 V3000
M  V30 BEGIN CTAB
M  V30 COUNTS 30 33 0 0 1
M  V30 BEGIN ATOM
M  V30 1 N 3.1555 -0.2818 0 0
M  V30 2 C 4.4892 0.4882 0 0
M  V30 3 C 5.8229 -0.2818 0 0
M  V30 4 C 5.8229 -1.8218 0 0
M  V30 5 S 4.4892 -2.5918 0 0
M  V30 6 C 3.1555 -1.8218 0 0 CFG=2
M  V30 7 C 1.6155 -1.8218 0 0 CFG=1
M  V30 8 C 1.6155 -0.2818 0 0
M  V30 9 C 4.4892 2.0282 0 0
M  V30 10 O 5.8229 2.7982 0 0
M  V30 11 O 3.1555 2.7982 0 0
M  V30 12 C 7.1566 0.4882 0 0
M  V30 13 S 8.4902 -0.2818 0 0
M  V30 14 S 9.9849 2.0197 0 0
M  V30 15 N 11.4912 2.3399 0 0
M  V30 16 C 12.2612 1.0062 0 0
M  V30 17 N 11.2308 -0.1382 0 0
M  V30 18 C 9.8239 0.4882 0 0
M  V30 19 O 0.5266 0.8071 0 0
M  V30 20 N 0.5266 -2.9108 0 0
M  V30 21 C -0.961 -2.5122 0 0
M  V30 22 O -1.3595 -1.0247 0 0
M  V30 23 C -2.0499 -3.6011 0 0
M  V30 24 C -3.5374 -3.2026 0 0
M  V30 25 C -4.6264 -4.2915 0 0
M  V30 26 C -6.1139 -3.8929 0 0
M  V30 27 C -6.5125 -2.4054 0 0
M  V30 28 C -5.4235 -1.3165 0 0
M  V30 29 C -3.936 -1.715 0 0
M  V30 30 O -1.6513 -5.0887 0 0
M  V30 END ATOM
M  V30 BEGIN BOND
M  V30 1 1 1 2
M  V30 2 2 2 3
M  V30 3 1 3 4
M  V30 4 1 4 5
M  V30 5 1 6 5
M  V30 6 1 6 1 CFG=3
M  V30 7 1 6 7
M  V30 8 1 7 8
M  V30 9 1 1 8
M  V30 10 1 9 10
M  V30 11 2 9 11
M  V30 12 1 2 9
M  V30 13 1 14 15
M  V30 14 2 15 16
M  V30 15 1 16 17
M  V30 16 2 17 18
M  V30 17 1 14 18
M  V30 18 1 13 18
M  V30 19 1 12 13
M  V30 20 1 3 12
M  V30 21 2 8 19
M  V30 22 2 21 22
M  V30 23 1 21 23
M  V30 24 2 24 25
M  V30 25 1 25 26
M  V30 26 2 26 27
M  V30 27 1 27 28
M  V30 28 2 28 29
M  V30 29 1 24 29
M  V30 30 1 23 24
M  V30 31 1 23 30
M  V30 32 1 20 21
M  V30 33 1 7 20 CFG=3
M  V30 END BOND
M  V30 BEGIN COLLECTION
M  V30 MDLV30/STEREL1 ATOMS=(1 7)
M  V30 END COLLECTION
M  V30 END CTAB
M  END
>  <type>
systematic

$$$$

  Mrv2401 11032418492D          

 32 35  0  0  1  0            999 V2000
    1.6905   -0.1510    0.0000 N   0  0  0  0  0  0  0  0  0  0  0  0
    2.4049    0.2615    0.0000 C   0  0  0  0  0  0  0  0  0  0  0  0
    3.1194   -0.1510    0.0000 C   0  0  0  0  0  0  0  0  0  0  0  0
    3.1194   -0.9760    0.0000 C   0  0  0  0  0  0  0  0  0  0  0  0
    2.4049   -1.3885    0.0000 S   0  0  0  0  0  0  0  0  0  0  0  0
    1.6905   -0.9760    0.0000 C   0  0  0  0  0  0  0  0  0  0  0  0
    0.8655   -0.9760    0.0000 C   0  0  2  0  0  0  0  0  0  0  0  0
    0.8655   -0.1510    0.0000 C   0  0  0  0  0  0  0  0  0  0  0  0
    2.4049    1.0865    0.0000 C   0  0  0  0  0  0  0  0  0  0  0  0
    3.1194    1.4990    0.0000 O   0  0  0  0  0  0  0  0  0  0  0  0
    1.6905    1.4990    0.0000 O   0  0  0  0  0  0  0  0  0  0  0  0
    3.8339    0.2615    0.0000 C   0  0  0  0  0  0  0  0  0  0  0  0
    4.5483   -0.1510    0.0000 S   0  0  0  0  0  0  0  0  0  0  0  0
    5.2628    0.2615    0.0000 C   0  0  0  0  0  0  0  0  0  0  0  0
    0.2821    0.4324    0.0000 O   0  0  0  0  0  0  0  0  0  0  0  0
    0.2821   -1.5593    0.0000 N   0  0  0  0  0  0  0  0  0  0  0  0
   -0.5148   -1.3458    0.0000 C   0  0  0  0  0  0  0  0  0  0  0  0
   -0.7283   -0.5489    0.0000 O   0  0  0  0  0  0  0  0  0  0  0  0
   -1.0982   -1.9292    0.0000 C   0  0  0  0  0  0  0  0  0  0  0  0
   -1.8950   -1.7157    0.0000 C   0  0  0  0  0  0  0  0  0  0  0  0
   -2.4784   -2.2990    0.0000 C   0  0  0  0  0  0  0  0  0  0  0  0
   -3.2753   -2.0855    0.0000 C   0  0  0  0  0  0  0  0  0  0  0  0
   -3.4888   -1.2886    0.0000 C   0  0  0  0  0  0  0  0  0  0  0  0
   -2.9055   -0.7052    0.0000 C   0  0  0  0  0  0  0  0  0  0  0  0
   -2.1086   -0.9188    0.0000 C   0  0  0  0  0  0  0  0  0  0  0  0
   -0.8846   -2.7261    0.0000 O   0  0  0  0  0  0  0  0  0  0  0  0
    5.9773   -0.1510    0.0000 C   0  0  0  0  0  0  0  0  0  0  0  0
    6.6918    0.2615    0.0000 C   0  0  0  0  0  0  0  0  0  0  0  0
    6.6918    1.0865    0.0000 C   0  0  0  0  0  0  0  0  0  0  0  0
    5.9773    1.4990    0.0000 N   0  0  0  0  0  0  0  0  0  0  0  0
    5.2628    1.0865    0.0000 C   0  0  0  0  0  0  0  0  0  0  0  0
    5.9773    2.3240    0.0000 O   0  0  0  0  0  0  0  0  0  0  0  0
  1  2  1  0  0  0  0
  2  3  2  0  0  0  0
  3  4  1  0  0  0  0
  4  5  1  0  0  0  0
  6  5  1  0  0  0  0
  6  1  1  0  0  0  0
  6  7  1  0  0  0  0
  7  8  1  0  0  0  0
  1  8  1  0  0  0  0
  9 10  1  0  0  0  0
  9 11  2  0  0  0  0
  2  9  1  0  0  0  0
 13 14  1  0  0  0  0
 12 13  1  0  0  0  0
  3 12  1  0  0  0  0
  8 15  2  0  0  0  0
 17 18  2  0  0  0  0
 19 17  1  0  0  0  0
 20 21  2  0  0  0  0
 21 22  1  0  0  0  0
 22 23  2  0  0  0  0
 23 24  1  0  0  0  0
 24 25  2  0  0  0  0
 20 25  1  0  0  0  0
 19 20  1  0  0  0  0
 19 26  1  0  0  0  0
 16 17  1  0  0  0  0
  7 16  1  1  0  0  0
 27 28  2  0  0  0  0
 28 29  1  0  0  0  0
 29 30  2  0  0  0  0
 30 31  1  0  0  0  0
 14 27  1  0  0  0  0
 14 31  2  0  0  0  0
 30 32  2  0  0  0  0
M  END
>  <type>
systematic

$$$$
4-[[2-Hydroxy-2-(5,6,7,8-tetrahydro-5,5,8,8-tetramethyl-2-naphthalenyl)acetyl]amino]-3-(trifluoromethyl)benzoic acid
  Mrv2401 11032418502D          

 32 34  0  0  0  0            999 V2000
    3.5724   -5.3625    0.0000 C   0  0  0  0  0  0  0  0  0  0  0  0
    3.5724   -6.1875    0.0000 C   0  0  0  0  0  0  0  0  0  0  0  0
    4.2868   -6.6000    0.0000 O   0  0  0  0  0  0  0  0  0  0  0  0
    2.8579   -6.6000    0.0000 O   0  0  0  0  0  0  0  0  0  0  0  0
    4.2868   -4.9500    0.0000 C   0  0  0  0  0  0  0  0  0  0  0  0
    4.2868   -4.1250    0.0000 C   0  0  0  0  0  0  0  0  0  0  0  0
    3.5724   -3.7125    0.0000 C   0  0  0  0  0  0  0  0  0  0  0  0
    2.8579   -4.1250    0.0000 C   0  0  0  0  0  0  0  0  0  0  0  0
    2.8579   -4.9500    0.0000 C   0  0  0  0  0  0  0  0  0  0  0  0
    5.0013   -3.7125    0.0000 C   0  0  0  0  0  0  0  0  0  0  0  0
    5.7158   -3.3000    0.0000 F   0  0  0  0  0  0  0  0  0  0  0  0
    5.4138   -4.4270    0.0000 F   0  0  0  0  0  0  0  0  0  0  0  0
    4.5888   -2.9980    0.0000 F   0  0  0  0  0  0  0  0  0  0  0  0
    3.5724   -2.8875    0.0000 N   0  0  0  0  0  0  0  0  0  0  0  0
    2.8579   -2.4750    0.0000 C   0  0  0  0  0  0  0  0  0  0  0  0
    2.1434   -2.8875    0.0000 O   0  0  0  0  0  0  0  0  0  0  0  0
    2.8579   -1.6500    0.0000 C   0  0  0  0  0  0  0  0  0  0  0  0
   -0.7145   -1.2375    0.0000 C   0  0  0  0  0  0  0  0  0  0  0  0
    0.0000   -1.6500    0.0000 C   0  0  0  0  0  0  0  0  0  0  0  0
    0.7145   -1.2375    0.0000 C   0  0  0  0  0  0  0  0  0  0  0  0
    0.7145   -0.4125    0.0000 C   0  0  0  0  0  0  0  0  0  0  0  0
    0.0000   -0.0000    0.0000 C   0  0  0  0  0  0  0  0  0  0  0  0
   -0.7145   -0.4125    0.0000 C   0  0  0  0  0  0  0  0  0  0  0  0
    1.4289   -0.0000    0.0000 C   0  0  0  0  0  0  0  0  0  0  0  0
    2.1434   -0.4125    0.0000 C   0  0  0  0  0  0  0  0  0  0  0  0
    2.1434   -1.2375    0.0000 C   0  0  0  0  0  0  0  0  0  0  0  0
    1.4289   -1.6500    0.0000 C   0  0  0  0  0  0  0  0  0  0  0  0
    0.3873    0.7284    0.0000 C   0  0  0  0  0  0  0  0  0  0  0  0
   -0.3873    0.7284    0.0000 C   0  0  0  0  0  0  0  0  0  0  0  0
   -0.3873   -2.3784    0.0000 C   0  0  0  0  0  0  0  0  0  0  0  0
    0.3873   -2.3784    0.0000 C   0  0  0  0  0  0  0  0  0  0  0  0
    3.5724   -1.2375    0.0000 O   0  0  0  0  0  0  0  0  0  0  0  0
  1  2  1  0  0  0  0
  2  3  1  0  0  0  0
  2  4  2  0  0  0  0
  1  5  2  0  0  0  0
  5  6  1  0  0  0  0
  6  7  2  0  0  0  0
  7  8  1  0  0  0  0
  8  9  2  0  0  0  0
  1  9  1  0  0  0  0
 10 11  1  0  0  0  0
 10 12  1  0  0  0  0
 10 13  1  0  0  0  0
  6 10  1  0  0  0  0
 15 16  2  0  0  0  0
 15 17  1  0  0  0  0
 18 19  1  0  0  0  0
 19 20  1  0  0  0  0
 20 21  2  0  0  0  0
 21 22  1  0  0  0  0
 22 23  1  0  0  0  0
 18 23  1  0  0  0  0
 21 24  1  0  0  0  0
 24 25  2  0  0  0  0
 25 26  1  0  0  0  0
 26 27  2  0  0  0  0
 20 27  1  0  0  0  0
 22 28  1  0  0  0  0
 22 29  1  0  0  0  0
 19 30  1  0  0  0  0
 19 31  1  0  0  0  0
 17 26  1  0  0  0  0
 17 32  1  0  0  0  0
 14 15  1  0  0  0  0
  7 14  1  0  0  0  0
M  END
>  <type>
systematic

$$$$
(4S)-4-[[2-[4-[[(4-Fluoro-3-methylphenyl)amino]carbonyl]-1,3,5-trimethyl-1H-pyrrol-2-yl]-2-oxoacetyl]amino]-L-proline
  Mrv2401 11032418512D          

 32 34  0  0  1  0            999 V2000
    1.6706   -7.0110    0.0000 N   0  0  0  0  0  0  0  0  0  0  0  0
    1.4157   -7.7956    0.0000 C   0  0  0  0  0  0  0  0  0  0  0  0
    0.5907   -7.7956    0.0000 C   0  0  2  0  0  0  0  0  0  0  0  0
    0.3357   -7.0110    0.0000 C   0  0  0  0  0  0  0  0  0  0  0  0
    1.0032   -6.5261    0.0000 C   0  0  1  0  0  0  0  0  0  0  0  0
    1.0032   -5.7011    0.0000 C   0  0  0  0  0  0  0  0  0  0  0  0
    1.7176   -5.2886    0.0000 O   0  0  0  0  0  0  0  0  0  0  0  0
    0.2887   -5.2886    0.0000 O   0  0  0  0  0  0  0  0  0  0  0  0
    0.1057   -8.4631    0.0000 N   0  0  0  0  0  0  0  0  0  0  0  0
   -0.7147   -8.3768    0.0000 C   0  0  0  0  0  0  0  0  0  0  0  0
   -1.0503   -7.6232    0.0000 O   0  0  0  0  0  0  0  0  0  0  0  0
   -1.1997   -9.0443    0.0000 C   0  0  0  0  0  0  0  0  0  0  0  0
   -0.8641   -9.7980    0.0000 O   0  0  0  0  0  0  0  0  0  0  0  0
   -2.4327   -8.2436    0.0000 N   0  0  0  0  0  0  0  0  0  0  0  0
   -2.0202   -8.9581    0.0000 C   0  0  0  0  0  0  0  0  0  0  0  0
   -2.5722   -9.5711    0.0000 C   0  0  0  0  0  0  0  0  0  0  0  0
   -3.3259   -9.2356    0.0000 C   0  0  0  0  0  0  0  0  0  0  0  0
   -3.2396   -8.4151    0.0000 C   0  0  0  0  0  0  0  0  0  0  0  0
   -2.0971   -7.4899    0.0000 C   0  0  0  0  0  0  0  0  0  0  0  0
   -2.4007  -10.3781    0.0000 C   0  0  0  0  0  0  0  0  0  0  0  0
   -3.8527   -7.8631    0.0000 C   0  0  0  0  0  0  0  0  0  0  0  0
   -4.0403   -9.6481    0.0000 C   0  0  0  0  0  0  0  0  0  0  0  0
   -4.7548   -9.2356    0.0000 O   0  0  0  0  0  0  0  0  0  0  0  0
   -4.0403  -10.4731    0.0000 N   0  0  0  0  0  0  0  0  0  0  0  0
   -4.7548  -10.8856    0.0000 C   0  0  0  0  0  0  0  0  0  0  0  0
   -4.7548  -11.7106    0.0000 C   0  0  0  0  0  0  0  0  0  0  0  0
   -5.4693  -12.1231    0.0000 C   0  0  0  0  0  0  0  0  0  0  0  0
   -6.1837  -11.7106    0.0000 C   0  0  0  0  0  0  0  0  0  0  0  0
   -6.1837  -10.8856    0.0000 C   0  0  0  0  0  0  0  0  0  0  0  0
   -5.4693  -10.4731    0.0000 C   0  0  0  0  0  0  0  0  0  0  0  0
   -5.4693  -12.9481    0.0000 C   0  0  0  0  0  0  0  0  0  0  0  0
   -6.8982  -12.1231    0.0000 F   0  0  0  0  0  0  0  0  0  0  0  0
  1  2  1  0  0  0  0
  3  2  1  0  0  0  0
  3  4  1  0  0  0  0
  5  4  1  0  0  0  0
  5  1  1  0  0  0  0
  5  6  1  1  0  0  0
  6  7  1  0  0  0  0
  6  8  2  0  0  0  0
 10 11  2  0  0  0  0
 10 12  1  0  0  0  0
 12 13  2  0  0  0  0
 14 15  1  0  0  0  0
 15 16  2  0  0  0  0
 16 17  1  0  0  0  0
 17 18  2  0  0  0  0
 14 18  1  0  0  0  0
 14 19  1  0  0  0  0
 16 20  1  0  0  0  0
 18 21  1  0  0  0  0
 22 23  2  0  0  0  0
 25 26  2  0  0  0  0
 26 27  1  0  0  0  0
 27 28  2  0  0  0  0
 28 29  1  0  0  0  0
 29 30  2  0  0  0  0
 25 30  1  0  0  0  0
 27 31  1  0  0  0  0
 28 32  1  0  0  0  0
 24 25  1  0  0  0  0
 22 24  1  0  0  0  0
 17 22  1  0  0  0  0
 12 15  1  0  0  0  0
  9 10  1  0  0  0  0
  3  9  1  1  0  0  0
M  END
>  <type>
systematic

$$$$
(4R)-4-[[2-[4-[[(4-Fluoro-3-methylphenyl)amino]carbonyl]-1,3,5-trimethyl-1H-pyrrol-2-yl]-2-oxoacetyl]amino]-L-proline
  Mrv2401 11032418522D          

 32 34  0  0  1  0            999 V2000
    1.6706   -7.0110    0.0000 N   0  0  0  0  0  0  0  0  0  0  0  0
    1.4157   -7.7956    0.0000 C   0  0  0  0  0  0  0  0  0  0  0  0
    0.5907   -7.7956    0.0000 C   0  0  1  0  0  0  0  0  0  0  0  0
    0.3357   -7.0110    0.0000 C   0  0  0  0  0  0  0  0  0  0  0  0
    1.0032   -6.5261    0.0000 C   0  0  1  0  0  0  0  0  0  0  0  0
    1.0032   -5.7011    0.0000 C   0  0  0  0  0  0  0  0  0  0  0  0
    1.7176   -5.2886    0.0000 O   0  0  0  0  0  0  0  0  0  0  0  0
    0.2887   -5.2886    0.0000 O   0  0  0  0  0  0  0  0  0  0  0  0
    0.1057   -8.4631    0.0000 N   0  0  0  0  0  0  0  0  0  0  0  0
   -0.7147   -8.3768    0.0000 C   0  0  0  0  0  0  0  0  0  0  0  0
   -1.0503   -7.6232    0.0000 O   0  0  0  0  0  0  0  0  0  0  0  0
   -1.1997   -9.0443    0.0000 C   0  0  0  0  0  0  0  0  0  0  0  0
   -0.8641   -9.7980    0.0000 O   0  0  0  0  0  0  0  0  0  0  0  0
   -2.4327   -8.2436    0.0000 N   0  0  0  0  0  0  0  0  0  0  0  0
   -2.0202   -8.9581    0.0000 C   0  0  0  0  0  0  0  0  0  0  0  0
   -2.5722   -9.5711    0.0000 C   0  0  0  0  0  0  0  0  0  0  0  0
   -3.3259   -9.2356    0.0000 C   0  0  0  0  0  0  0  0  0  0  0  0
   -3.2396   -8.4151    0.0000 C   0  0  0  0  0  0  0  0  0  0  0  0
   -2.0971   -7.4899    0.0000 C   0  0  0  0  0  0  0  0  0  0  0  0
   -2.4007  -10.3781    0.0000 C   0  0  0  0  0  0  0  0  0  0  0  0
   -3.8527   -7.8631    0.0000 C   0  0  0  0  0  0  0  0  0  0  0  0
   -4.0403   -9.6481    0.0000 C   0  0  0  0  0  0  0  0  0  0  0  0
   -4.7548   -9.2356    0.0000 O   0  0  0  0  0  0  0  0  0  0  0  0
   -4.0403  -10.4731    0.0000 N   0  0  0  0  0  0  0  0  0  0  0  0
   -4.7548  -10.8856    0.0000 C   0  0  0  0  0  0  0  0  0  0  0  0
   -4.7548  -11.7106    0.0000 C   0  0  0  0  0  0  0  0  0  0  0  0
   -5.4693  -12.1231    0.0000 C   0  0  0  0  0  0  0  0  0  0  0  0
   -6.1837  -11.7106    0.0000 C   0  0  0  0  0  0  0  0  0  0  0  0
   -6.1837  -10.8856    0.0000 C   0  0  0  0  0  0  0  0  0  0  0  0
   -5.4693  -10.4731    0.0000 C   0  0  0  0  0  0  0  0  0  0  0  0
   -5.4693  -12.9481    0.0000 C   0  0  0  0  0  0  0  0  0  0  0  0
   -6.8982  -12.1231    0.0000 F   0  0  0  0  0  0  0  0  0  0  0  0
  1  2  1  0  0  0  0
  3  2  1  0  0  0  0
  3  4  1  0  0  0  0
  5  4  1  0  0  0  0
  5  1  1  0  0  0  0
  5  6  1  1  0  0  0
  6  7  1  0  0  0  0
  6  8  2  0  0  0  0
 10 11  2  0  0  0  0
 10 12  1  0  0  0  0
 12 13  2  0  0  0  0
 14 15  1  0  0  0  0
 15 16  2  0  0  0  0
 16 17  1  0  0  0  0
 17 18  2  0  0  0  0
 14 18  1  0  0  0  0
 14 19  1  0  0  0  0
 16 20  1  0  0  0  0
 18 21  1  0  0  0  0
 22 23  2  0  0  0  0
 25 26  2  0  0  0  0
 26 27  1  0  0  0  0
 27 28  2  0  0  0  0
 28 29  1  0  0  0  0
 29 30  2  0  0  0  0
 25 30  1  0  0  0  0
 27 31  1  0  0  0  0
 28 32  1  0  0  0  0
 24 25  1  0  0  0  0
 22 24  1  0  0  0  0
 17 22  1  0  0  0  0
 12 15  1  0  0  0  0
  9 10  1  0  0  0  0
  3  9  1  6  0  0  0
M  END
>  <type>
systematic

$$$$

  Mrv2401 11032419012D          

 26 28  0  0  1  0            999 V2000
    1.6905   -0.1510    0.0000 N   0  0  0  0  0  0  0  0  0  0  0  0
    2.4049    0.2615    0.0000 C   0  0  0  0  0  0  0  0  0  0  0  0
    3.1194   -0.1510    0.0000 C   0  0  0  0  0  0  0  0  0  0  0  0
    3.1194   -0.9760    0.0000 C   0  0  0  0  0  0  0  0  0  0  0  0
    2.4049   -1.3885    0.0000 S   0  0  0  0  0  0  0  0  0  0  0  0
    1.6905   -0.9760    0.0000 C   0  0  0  0  0  0  0  0  0  0  0  0
    0.8655   -0.9760    0.0000 C   0  0  2  0  0  0  0  0  0  0  0  0
    0.8655   -0.1510    0.0000 C   0  0  0  0  0  0  0  0  0  0  0  0
    2.4049    1.0865    0.0000 C   0  0  0  0  0  0  0  0  0  0  0  0
    3.1194    1.4990    0.0000 O   0  0  0  0  0  0  0  0  0  0  0  0
    1.6905    1.4990    0.0000 O   0  0  0  0  0  0  0  0  0  0  0  0
    0.2821    0.4324    0.0000 O   0  0  0  0  0  0  0  0  0  0  0  0
    3.8339    0.2615    0.0000 C   0  0  0  0  0  0  0  0  0  0  0  0
    4.5483   -0.1510    0.0000 C   0  0  0  0  0  0  0  0  0  0  0  0
    5.2628    0.2615    0.0000 Cl  0  0  0  0  0  0  0  0  0  0  0  0
    0.2821   -1.5593    0.0000 N   0  0  0  0  0  0  0  0  0  0  0  0
   -0.5148   -1.3458    0.0000 C   0  0  0  0  0  0  0  0  0  0  0  0
   -0.7283   -0.5489    0.0000 O   0  0  0  0  0  0  0  0  0  0  0  0
   -1.0982   -1.9292    0.0000 C   0  0  0  0  0  0  0  0  0  0  0  0
   -2.1907   -0.9455    0.0000 N   0  0  0  0  0  0  0  0  0  0  0  0
   -1.8950   -1.7157    0.0000 C   0  0  0  0  0  0  0  0  0  0  0  0
   -2.5362   -2.2348    0.0000 C   0  0  0  0  0  0  0  0  0  0  0  0
   -3.2281   -1.7855    0.0000 S   0  0  0  0  0  0  0  0  0  0  0  0
   -3.0146   -0.9886    0.0000 C   0  0  0  0  0  0  0  0  0  0  0  0
   -0.8846   -2.7261    0.0000 O   0  0  0  0  0  0  0  0  0  0  0  0
   -3.5338   -0.3475    0.0000 N   0  0  0  0  0  0  0  0  0  0  0  0
  1  2  1  0  0  0  0
  2  3  2  0  0  0  0
  3  4  1  0  0  0  0
  4  5  1  0  0  0  0
  6  5  1  0  0  0  0
  6  1  1  0  0  0  0
  6  7  1  0  0  0  0
  7  8  1  0  0  0  0
  1  8  1  0  0  0  0
  9 10  1  0  0  0  0
  9 11  2  0  0  0  0
  2  9  1  0  0  0  0
  8 12  2  0  0  0  0
 14 15  1  0  0  0  0
 13 14  2  0  0  0  0
  3 13  1  0  0  0  0
 17 18  2  0  0  0  0
 17 19  1  0  0  0  0
 20 21  1  0  0  0  0
 21 22  2  0  0  0  0
 22 23  1  0  0  0  0
 23 24  1  0  0  0  0
 20 24  2  0  0  0  0
 19 21  1  0  0  0  0
 19 25  2  0  0  0  0
 16 17  1  0  0  0  0
  7 16  1  1  0  0  0
 24 26  1  0  0  0  0
M  END
>  <type>
systematic

$$$$
5-Thia-1-azabicyclo[4.2.0]oct-2-ene-2-carboxylic acid, 7-[(hydroxy-2-thienylacetyl)amino]-3-[[(5-methyl-1,3,4-thiadiazol-2-yl)thio]methyl]-8-oxo-, [6 R-(6α,7β)]-
  Mrv2401 11032418572D          

 30 33  0  0  1  0            999 V2000
    1.6905   -0.1510    0.0000 N   0  0  0  0  0  0  0  0  0  0  0  0
    2.4049    0.2615    0.0000 C   0  0  0  0  0  0  0  0  0  0  0  0
    3.1194   -0.1510    0.0000 C   0  0  0  0  0  0  0  0  0  0  0  0
    3.1194   -0.9760    0.0000 C   0  0  0  0  0  0  0  0  0  0  0  0
    2.4049   -1.3885    0.0000 S   0  0  0  0  0  0  0  0  0  0  0  0
    1.6905   -0.9760    0.0000 C   0  0  2  0  0  0  0  0  0  0  0  0
    0.8655   -0.9760    0.0000 C   0  0  2  0  0  0  0  0  0  0  0  0
    0.8655   -0.1510    0.0000 C   0  0  0  0  0  0  0  0  0  0  0  0
    2.4049    1.0865    0.0000 C   0  0  0  0  0  0  0  0  0  0  0  0
    3.1194    1.4990    0.0000 O   0  0  0  0  0  0  0  0  0  0  0  0
    1.6905    1.4990    0.0000 O   0  0  0  0  0  0  0  0  0  0  0  0
    0.2821    0.4324    0.0000 O   0  0  0  0  0  0  0  0  0  0  0  0
    3.8339    0.2615    0.0000 C   0  0  0  0  0  0  0  0  0  0  0  0
    4.5483   -0.1510    0.0000 S   0  0  0  0  0  0  0  0  0  0  0  0
    6.0165   -0.0740    0.0000 S   0  0  0  0  0  0  0  0  0  0  0  0
    5.2628    0.2615    0.0000 C   0  0  0  0  0  0  0  0  0  0  0  0
    5.3490    1.0820    0.0000 N   0  0  0  0  0  0  0  0  0  0  0  0
    6.1560    1.2535    0.0000 N   0  0  0  0  0  0  0  0  0  0  0  0
    6.5685    0.5391    0.0000 C   0  0  0  0  0  0  0  0  0  0  0  0
    7.3890    0.4528    0.0000 C   0  0  0  0  0  0  0  0  0  0  0  0
    0.2821   -1.5593    0.0000 N   0  0  0  0  0  0  0  0  0  0  0  0
   -0.5148   -1.3458    0.0000 C   0  0  0  0  0  0  0  0  0  0  0  0
   -0.7283   -0.5489    0.0000 O   0  0  0  0  0  0  0  0  0  0  0  0
   -1.0982   -1.9292    0.0000 C   0  0  0  0  0  0  0  0  0  0  0  0
   -2.1907   -0.9455    0.0000 S   0  0  0  0  0  0  0  0  0  0  0  0
   -1.8950   -1.7157    0.0000 C   0  0  0  0  0  0  0  0  0  0  0  0
   -2.5362   -2.2348    0.0000 C   0  0  0  0  0  0  0  0  0  0  0  0
   -3.2281   -1.7855    0.0000 C   0  0  0  0  0  0  0  0  0  0  0  0
   -3.0146   -0.9886    0.0000 C   0  0  0  0  0  0  0  0  0  0  0  0
   -0.8846   -2.7261    0.0000 O   0  0  0  0  0  0  0  0  0  0  0  0
  1  2  1  0  0  0  0
  2  3  2  0  0  0  0
  3  4  1  0  0  0  0
  4  5  1  0  0  0  0
  6  5  1  0  0  0  0
  6  1  1  6  0  0  0
  6  7  1  0  0  0  0
  7  8  1  0  0  0  0
  1  8  1  0  0  0  0
  9 10  1  0  0  0  0
  9 11  2  0  0  0  0
  2  9  1  0  0  0  0
  8 12  2  0  0  0  0
 15 16  1  0  0  0  0
 16 17  2  0  0  0  0
 17 18  1  0  0  0  0
 18 19  2  0  0  0  0
 15 19  1  0  0  0  0
 19 20  1  0  0  0  0
 14 16  1  0  0  0  0
 13 14  1  0  0  0  0
  3 13  1  0  0  0  0
 22 23  2  0  0  0  0
 22 24  1  0  0  0  0
 25 26  1  0  0  0  0
 26 27  2  0  0  0  0
 27 28  1  0  0  0  0
 28 29  2  0  0  0  0
 25 29  1  0  0  0  0
 24 26  1  0  0  0  0
 24 30  1  0  0  0  0
 21 22  1  0  0  0  0
  7 21  1  1  0  0  0
M  END
>  <type>
systematic

$$$$
5-Thia-1-azabicyclo[4.2.0]oct-2-ene-2-carboxylic acid, 3-[[(aminocarbonyl)oxy]methyl]-7-[[(2-amino-4-thiazolyl)hydroxyacetyl]amino]-8-oxo-, [6 R-(6α,7β)]-
  Mrv2401 11032419022D          

 28 30  0  0  1  0            999 V2000
    1.6905   -0.1510    0.0000 N   0  0  0  0  0  0  0  0  0  0  0  0
    2.4049    0.2615    0.0000 C   0  0  0  0  0  0  0  0  0  0  0  0
    3.1194   -0.1510    0.0000 C   0  0  0  0  0  0  0  0  0  0  0  0
    3.1194   -0.9760    0.0000 C   0  0  0  0  0  0  0  0  0  0  0  0
    2.4049   -1.3885    0.0000 S   0  0  0  0  0  0  0  0  0  0  0  0
    1.6905   -0.9760    0.0000 C   0  0  2  0  0  0  0  0  0  0  0  0
    0.8655   -0.9760    0.0000 C   0  0  2  0  0  0  0  0  0  0  0  0
    0.8655   -0.1510    0.0000 C   0  0  0  0  0  0  0  0  0  0  0  0
    2.4049    1.0865    0.0000 C   0  0  0  0  0  0  0  0  0  0  0  0
    3.1194    1.4990    0.0000 O   0  0  0  0  0  0  0  0  0  0  0  0
    1.6905    1.4990    0.0000 O   0  0  0  0  0  0  0  0  0  0  0  0
    0.2821    0.4324    0.0000 O   0  0  0  0  0  0  0  0  0  0  0  0
    0.2821   -1.5593    0.0000 N   0  0  0  0  0  0  0  0  0  0  0  0
   -0.5148   -1.3458    0.0000 C   0  0  0  0  0  0  0  0  0  0  0  0
   -0.7283   -0.5489    0.0000 O   0  0  0  0  0  0  0  0  0  0  0  0
   -1.0982   -1.9292    0.0000 C   0  0  0  0  0  0  0  0  0  0  0  0
   -0.8846   -2.7261    0.0000 O   0  0  0  0  0  0  0  0  0  0  0  0
   -3.2281   -1.7855    0.0000 S   0  0  0  0  0  0  0  0  0  0  0  0
   -3.0146   -0.9886    0.0000 C   0  0  0  0  0  0  0  0  0  0  0  0
   -2.1907   -0.9455    0.0000 N   0  0  0  0  0  0  0  0  0  0  0  0
   -1.8950   -1.7157    0.0000 C   0  0  0  0  0  0  0  0  0  0  0  0
   -2.5362   -2.2348    0.0000 C   0  0  0  0  0  0  0  0  0  0  0  0
   -3.5338   -0.3475    0.0000 N   0  0  0  0  0  0  0  0  0  0  0  0
    3.8339    0.2615    0.0000 C   0  0  0  0  0  0  0  0  0  0  0  0
    3.8339    1.0865    0.0000 O   0  0  0  0  0  0  0  0  0  0  0  0
    4.5483    1.4990    0.0000 C   0  0  0  0  0  0  0  0  0  0  0  0
    4.5483    2.3240    0.0000 O   0  0  0  0  0  0  0  0  0  0  0  0
    5.2628    1.0865    0.0000 N   0  0  0  0  0  0  0  0  0  0  0  0
  1  2  1  0  0  0  0
  2  3  2  0  0  0  0
  3  4  1  0  0  0  0
  4  5  1  0  0  0  0
  6  5  1  0  0  0  0
  6  1  1  6  0  0  0
  6  7  1  0  0  0  0
  7  8  1  0  0  0  0
  1  8  1  0  0  0  0
  9 10  1  0  0  0  0
  9 11  2  0  0  0  0
  2  9  1  0  0  0  0
  8 12  2  0  0  0  0
 14 15  2  0  0  0  0
 14 16  1  0  0  0  0
 16 17  1  0  0  0  0
 18 19  1  0  0  0  0
 19 20  2  0  0  0  0
 20 21  1  0  0  0  0
 21 22  2  0  0  0  0
 18 22  1  0  0  0  0
 19 23  1  0  0  0  0
 16 21  1  0  0  0  0
 13 14  1  0  0  0  0
  7 13  1  1  0  0  0
 26 27  2  0  0  0  0
 26 28  1  0  0  0  0
 25 26  1  0  0  0  0
 24 25  1  0  0  0  0
  3 24  1  0  0  0  0
M  END
>  <type>
systematic

$$$$
5-Thia-1-azabicyclo[4.2.0]oct-2-ene-2-carboxylic acid, 7-[(hydroxy-2-thienylacetyl)amino]-3-[[(5-methyl-1,3,4-thiadiazol-2-yl)thio]methyl]-8-oxo-, [6 R-[6α,7β(S*)]]-
  Mrv2401 11032419032D          

  0  0  0     0  0            999 V3000
M  V30 BEGIN CTAB
M  V30 COUNTS 30 33 0 0 1
M  V30 BEGIN ATOM
M  V30 1 N 3.1555 -0.2818 0 0
M  V30 2 C 4.4892 0.4882 0 0
M  V30 3 C 5.8229 -0.2818 0 0
M  V30 4 C 5.8229 -1.8218 0 0
M  V30 5 S 4.4892 -2.5918 0 0
M  V30 6 C 3.1555 -1.8218 0 0 CFG=2
M  V30 7 C 1.6155 -1.8218 0 0 CFG=2
M  V30 8 C 1.6155 -0.2818 0 0
M  V30 9 C 4.4892 2.0282 0 0
M  V30 10 O 5.8229 2.7982 0 0
M  V30 11 O 3.1555 2.7982 0 0
M  V30 12 O 0.5266 0.8071 0 0
M  V30 13 C 7.1566 0.4882 0 0
M  V30 14 S 8.4902 -0.2818 0 0
M  V30 15 S 11.2308 -0.1382 0 0
M  V30 16 C 9.8239 0.4882 0 0
M  V30 17 N 9.9849 2.0197 0 0
M  V30 18 N 11.4912 2.3399 0 0
M  V30 19 C 12.2612 1.0062 0 0
M  V30 20 C 13.7928 0.8453 0 0
M  V30 21 N 0.5266 -2.9108 0 0
M  V30 22 C -0.961 -2.5122 0 0
M  V30 23 O -1.3595 -1.0247 0 0
M  V30 24 C -2.0499 -3.6011 0 0
M  V30 25 S -4.0893 -1.7649 0 0
M  V30 26 C -3.5374 -3.2026 0 0
M  V30 27 C -4.7342 -4.1717 0 0
M  V30 28 C -6.0258 -3.333 0 0
M  V30 29 C -5.6272 -1.8454 0 0
M  V30 30 O -1.6513 -5.0887 0 0
M  V30 END ATOM
M  V30 BEGIN BOND
M  V30 1 1 1 2
M  V30 2 2 2 3
M  V30 3 1 3 4
M  V30 4 1 4 5
M  V30 5 1 6 5
M  V30 6 1 6 1 CFG=3
M  V30 7 1 6 7
M  V30 8 1 7 8
M  V30 9 1 1 8
M  V30 10 1 9 10
M  V30 11 2 9 11
M  V30 12 1 2 9
M  V30 13 2 8 12
M  V30 14 1 15 16
M  V30 15 2 16 17
M  V30 16 1 17 18
M  V30 17 2 18 19
M  V30 18 1 15 19
M  V30 19 1 19 20
M  V30 20 1 14 16
M  V30 21 1 13 14
M  V30 22 1 3 13
M  V30 23 2 22 23
M  V30 24 1 22 24
M  V30 25 1 25 26
M  V30 26 2 26 27
M  V30 27 1 27 28
M  V30 28 2 28 29
M  V30 29 1 25 29
M  V30 30 1 24 26
M  V30 31 1 24 30
M  V30 32 1 21 22
M  V30 33 1 7 21 CFG=1
M  V30 END BOND
M  V30 BEGIN COLLECTION
M  V30 MDLV30/STEREL1 ATOMS=(1 7)
M  V30 END COLLECTION
M  V30 END CTAB
M  END
>  <type>
systematic

$$$$
5-Thia-1-azabicyclo[4.2.0]oct-2-ene-2-carboxylic acid, 7-[(hydroxyphenylacetyl)amino]-3-[2-(1-methyl-1H-tetrazol-5-yl)ethenyl]-8-oxo-, [6 R-[6α,7β(R*)]]-
  Mrv2401 11032419042D          

  0  0  0     0  0            999 V3000
M  V30 BEGIN CTAB
M  V30 COUNTS 31 34 0 0 1
M  V30 BEGIN ATOM
M  V30 1 N 3.1555 -0.2818 0 0
M  V30 2 C 4.4892 0.4882 0 0
M  V30 3 C 5.8229 -0.2818 0 0
M  V30 4 C 5.8229 -1.8218 0 0
M  V30 5 S 4.4892 -2.5918 0 0
M  V30 6 C 3.1555 -1.8218 0 0 CFG=2
M  V30 7 C 1.6155 -1.8218 0 0 CFG=1
M  V30 8 C 1.6155 -0.2818 0 0
M  V30 9 C 4.4892 2.0282 0 0
M  V30 10 O 5.8229 2.7982 0 0
M  V30 11 O 3.1555 2.7982 0 0
M  V30 12 O 0.5266 0.8071 0 0
M  V30 13 C 7.1566 0.4882 0 0
M  V30 14 C 7.1566 2.0282 0 0
M  V30 15 N 8.6512 4.3297 0 0
M  V30 16 N 10.1576 4.6499 0 0
M  V30 17 N 10.9276 3.3162 0 0
M  V30 18 N 9.8971 2.1718 0 0
M  V30 19 C 8.4902 2.7982 0 0
M  V30 20 C 7.5068 5.3602 0 0
M  V30 21 N 0.5266 -2.9108 0 0
M  V30 22 C -0.961 -2.5122 0 0
M  V30 23 O -1.3595 -1.0247 0 0
M  V30 24 C -2.0499 -3.6011 0 0
M  V30 25 C -3.5374 -3.2026 0 0
M  V30 26 C -4.6264 -4.2915 0 0
M  V30 27 C -6.1139 -3.8929 0 0
M  V30 28 C -6.5125 -2.4054 0 0
M  V30 29 C -5.4235 -1.3165 0 0
M  V30 30 C -3.936 -1.715 0 0
M  V30 31 O -1.6513 -5.0887 0 0
M  V30 END ATOM
M  V30 BEGIN BOND
M  V30 1 1 1 2
M  V30 2 2 2 3
M  V30 3 1 3 4
M  V30 4 1 4 5
M  V30 5 1 6 5
M  V30 6 1 6 1 CFG=3
M  V30 7 1 6 7
M  V30 8 1 7 8
M  V30 9 1 1 8
M  V30 10 1 9 10
M  V30 11 2 9 11
M  V30 12 1 2 9
M  V30 13 2 8 12
M  V30 14 2 13 14
M  V30 15 1 15 16
M  V30 16 2 16 17
M  V30 17 1 17 18
M  V30 18 2 18 19
M  V30 19 1 15 19
M  V30 20 1 15 20
M  V30 21 1 14 19
M  V30 22 1 13 3 CFG=2
M  V30 23 2 22 23
M  V30 24 1 22 24
M  V30 25 2 25 26
M  V30 26 1 26 27
M  V30 27 2 27 28
M  V30 28 1 28 29
M  V30 29 2 29 30
M  V30 30 1 25 30
M  V30 31 1 24 25
M  V30 32 1 24 31
M  V30 33 1 21 22
M  V30 34 1 7 21 CFG=3
M  V30 END BOND
M  V30 BEGIN COLLECTION
M  V30 MDLV30/STEREL1 ATOMS=(1 7)
M  V30 END COLLECTION
M  V30 END CTAB
M  END
>  <type>
systematic

$$$$
(2S,4R)-4-[[2-[4-[[(4-Fluoro-3-methylphenyl)amino]carbonyl]-1,3,5-trimethyl-1H-pyrrol-2-yl]-2-oxoacetyl]amino]-2-piperidinecarboxylic acid
  Mrv2401 11032419052D          

 33 35  0  0  1  0            999 V2000
    4.0087   -0.8361    0.0000 C   0  0  2  0  0  0  0  0  0  0  0  0
    3.3956   -0.2841    0.0000 C   0  0  0  0  0  0  0  0  0  0  0  0
    3.5671    0.5229    0.0000 C   0  0  0  0  0  0  0  0  0  0  0  0
    4.3517    0.7778    0.0000 N   0  0  0  0  0  0  0  0  0  0  0  0
    4.9648    0.2258    0.0000 C   0  0  1  0  0  0  0  0  0  0  0  0
    4.7933   -0.5812    0.0000 C   0  0  0  0  0  0  0  0  0  0  0  0
    5.7494    0.4807    0.0000 C   0  0  0  0  0  0  0  0  0  0  0  0
    5.9210    1.2877    0.0000 O   0  0  0  0  0  0  0  0  0  0  0  0
    6.3625   -0.0713    0.0000 O   0  0  0  0  0  0  0  0  0  0  0  0
    3.8372   -1.6431    0.0000 N   0  0  0  0  0  0  0  0  0  0  0  0
    3.0525   -1.8980    0.0000 C   0  0  0  0  0  0  0  0  0  0  0  0
    2.4394   -1.3460    0.0000 O   0  0  0  0  0  0  0  0  0  0  0  0
    2.8810   -2.7050    0.0000 C   0  0  0  0  0  0  0  0  0  0  0  0
    3.4941   -3.2570    0.0000 O   0  0  0  0  0  0  0  0  0  0  0  0
    1.4289   -2.4750    0.0000 N   0  0  0  0  0  0  0  0  0  0  0  0
    2.0964   -2.9599    0.0000 C   0  0  0  0  0  0  0  0  0  0  0  0
    1.8414   -3.7445    0.0000 C   0  0  0  0  0  0  0  0  0  0  0  0
    1.0164   -3.7445    0.0000 C   0  0  0  0  0  0  0  0  0  0  0  0
    0.7615   -2.9599    0.0000 C   0  0  0  0  0  0  0  0  0  0  0  0
    1.4289   -1.6500    0.0000 C   0  0  0  0  0  0  0  0  0  0  0  0
    2.3264   -4.4120    0.0000 C   0  0  0  0  0  0  0  0  0  0  0  0
   -0.0231   -2.7050    0.0000 C   0  0  0  0  0  0  0  0  0  0  0  0
    0.5315   -4.4120    0.0000 C   0  0  0  0  0  0  0  0  0  0  0  0
   -0.2890   -4.3257    0.0000 O   0  0  0  0  0  0  0  0  0  0  0  0
    0.8671   -5.1657    0.0000 N   0  0  0  0  0  0  0  0  0  0  0  0
    0.3822   -5.8331    0.0000 C   0  0  0  0  0  0  0  0  0  0  0  0
    0.7177   -6.5868    0.0000 C   0  0  0  0  0  0  0  0  0  0  0  0
    0.2328   -7.2542    0.0000 C   0  0  0  0  0  0  0  0  0  0  0  0
   -0.5877   -7.1680    0.0000 C   0  0  0  0  0  0  0  0  0  0  0  0
   -0.9232   -6.4143    0.0000 C   0  0  0  0  0  0  0  0  0  0  0  0
   -0.4383   -5.7469    0.0000 C   0  0  0  0  0  0  0  0  0  0  0  0
    0.5683   -8.0079    0.0000 C   0  0  0  0  0  0  0  0  0  0  0  0
   -1.0726   -7.8354    0.0000 F   0  0  0  0  0  0  0  0  0  0  0  0
  1  2  1  0  0  0  0
  2  3  1  0  0  0  0
  3  4  1  0  0  0  0
  5  4  1  0  0  0  0
  5  6  1  0  0  0  0
  1  6  1  0  0  0  0
  7  8  1  0  0  0  0
  7  9  2  0  0  0  0
  5  7  1  6  0  0  0
 11 12  2  0  0  0  0
 11 13  1  0  0  0  0
 13 14  2  0  0  0  0
 15 16  1  0  0  0  0
 16 17  2  0  0  0  0
 17 18  1  0  0  0  0
 18 19  2  0  0  0  0
 15 19  1  0  0  0  0
 15 20  1  0  0  0  0
 17 21  1  0  0  0  0
 19 22  1  0  0  0  0
 23 24  2  0  0  0  0
 26 27  2  0  0  0  0
 27 28  1  0  0  0  0
 28 29  2  0  0  0  0
 29 30  1  0  0  0  0
 30 31  2  0  0  0  0
 26 31  1  0  0  0  0
 28 32  1  0  0  0  0
 29 33  1  0  0  0  0
 25 26  1  0  0  0  0
 23 25  1  0  0  0  0
 18 23  1  0  0  0  0
 13 16  1  0  0  0  0
 10 11  1  0  0  0  0
  1 10  1  6  0  0  0
M  END
>  <type>
systematic

$$$$
5-Thia-1-azabicyclo[4.2.0]oct-2-ene-2-carboxylic acid, 7-[(hydroxyphenylacetyl)amino]-3-[2-(1-methyl-1H-tetrazol-5-yl)ethenyl]-8-oxo-, [6 R-(6α,7β)]-
  Mrv2401 11032419062D          

 31 34  0  0  1  0            999 V2000
    1.6905   -0.1510    0.0000 N   0  0  0  0  0  0  0  0  0  0  0  0
    2.4049    0.2615    0.0000 C   0  0  0  0  0  0  0  0  0  0  0  0
    3.1194   -0.1510    0.0000 C   0  0  0  0  0  0  0  0  0  0  0  0
    3.1194   -0.9760    0.0000 C   0  0  0  0  0  0  0  0  0  0  0  0
    2.4049   -1.3885    0.0000 S   0  0  0  0  0  0  0  0  0  0  0  0
    1.6905   -0.9760    0.0000 C   0  0  2  0  0  0  0  0  0  0  0  0
    0.8655   -0.9760    0.0000 C   0  0  2  0  0  0  0  0  0  0  0  0
    0.8655   -0.1510    0.0000 C   0  0  0  0  0  0  0  0  0  0  0  0
    2.4049    1.0865    0.0000 C   0  0  0  0  0  0  0  0  0  0  0  0
    3.1194    1.4990    0.0000 O   0  0  0  0  0  0  0  0  0  0  0  0
    1.6905    1.4990    0.0000 O   0  0  0  0  0  0  0  0  0  0  0  0
    0.2821    0.4324    0.0000 O   0  0  0  0  0  0  0  0  0  0  0  0
    3.8339    0.2615    0.0000 C   0  0  0  0  0  0  0  0  0  0  0  0
    3.8339    1.0865    0.0000 C   0  0  0  0  0  0  0  0  0  0  0  0
    4.6346    2.3195    0.0000 N   0  0  0  0  0  0  0  0  0  0  0  0
    5.4415    2.4910    0.0000 N   0  0  0  0  0  0  0  0  0  0  0  0
    5.8540    1.7766    0.0000 N   0  0  0  0  0  0  0  0  0  0  0  0
    5.3020    1.1635    0.0000 N   0  0  0  0  0  0  0  0  0  0  0  0
    4.5483    1.4990    0.0000 C   0  0  0  0  0  0  0  0  0  0  0  0
    4.0215    2.8715    0.0000 C   0  0  0  0  0  0  0  0  0  0  0  0
    0.2821   -1.5593    0.0000 N   0  0  0  0  0  0  0  0  0  0  0  0
   -0.5148   -1.3458    0.0000 C   0  0  0  0  0  0  0  0  0  0  0  0
   -0.7283   -0.5489    0.0000 O   0  0  0  0  0  0  0  0  0  0  0  0
   -1.0982   -1.9292    0.0000 C   0  0  0  0  0  0  0  0  0  0  0  0
   -1.8950   -1.7157    0.0000 C   0  0  0  0  0  0  0  0  0  0  0  0
   -2.4784   -2.2990    0.0000 C   0  0  0  0  0  0  0  0  0  0  0  0
   -3.2753   -2.0855    0.0000 C   0  0  0  0  0  0  0  0  0  0  0  0
   -3.4888   -1.2886    0.0000 C   0  0  0  0  0  0  0  0  0  0  0  0
   -2.9055   -0.7052    0.0000 C   0  0  0  0  0  0  0  0  0  0  0  0
   -2.1086   -0.9188    0.0000 C   0  0  0  0  0  0  0  0  0  0  0  0
   -0.8846   -2.7261    0.0000 O   0  0  0  0  0  0  0  0  0  0  0  0
  1  2  1  0  0  0  0
  2  3  2  0  0  0  0
  3  4  1  0  0  0  0
  4  5  1  0  0  0  0
  6  5  1  0  0  0  0
  6  1  1  6  0  0  0
  6  7  1  0  0  0  0
  7  8  1  0  0  0  0
  1  8  1  0  0  0  0
  9 10  1  0  0  0  0
  9 11  2  0  0  0  0
  2  9  1  0  0  0  0
  8 12  2  0  0  0  0
 13 14  2  0  0  0  0
 15 16  1  0  0  0  0
 16 17  2  0  0  0  0
 17 18  1  0  0  0  0
 18 19  2  0  0  0  0
 15 19  1  0  0  0  0
 15 20  1  0  0  0  0
 14 19  1  0  0  0  0
 13  3  1  4  0  0  0
 22 23  2  0  0  0  0
 22 24  1  0  0  0  0
 25 26  2  0  0  0  0
 26 27  1  0  0  0  0
 27 28  2  0  0  0  0
 28 29  1  0  0  0  0
 29 30  2  0  0  0  0
 25 30  1  0  0  0  0
 24 25  1  0  0  0  0
 24 31  1  0  0  0  0
 21 22  1  0  0  0  0
  7 21  1  1  0  0  0
M  END
>  <type>
systematic

$$$$
5-Thia-1-azabicyclo[4.2.0]oct-2-ene-2-carboxylic acid, 3-[[[5-(aminomethyl)-1,3,4-thiadiazol-2-yl]thio]methyl]-7-[(hydroxy-2-thienylacetyl)amino]-8-oxo-, [6 R-(6α,7β)]-
  Mrv2401 11032419072D          

 31 34  0  0  1  0            999 V2000
    1.6905   -0.1510    0.0000 N   0  0  0  0  0  0  0  0  0  0  0  0
    2.4049    0.2615    0.0000 C   0  0  0  0  0  0  0  0  0  0  0  0
    3.1194   -0.1510    0.0000 C   0  0  0  0  0  0  0  0  0  0  0  0
    3.1194   -0.9760    0.0000 C   0  0  0  0  0  0  0  0  0  0  0  0
    2.4049   -1.3885    0.0000 S   0  0  0  0  0  0  0  0  0  0  0  0
    1.6905   -0.9760    0.0000 C   0  0  2  0  0  0  0  0  0  0  0  0
    0.8655   -0.9760    0.0000 C   0  0  2  0  0  0  0  0  0  0  0  0
    0.8655   -0.1510    0.0000 C   0  0  0  0  0  0  0  0  0  0  0  0
    2.4049    1.0865    0.0000 C   0  0  0  0  0  0  0  0  0  0  0  0
    3.1194    1.4990    0.0000 O   0  0  0  0  0  0  0  0  0  0  0  0
    1.6905    1.4990    0.0000 O   0  0  0  0  0  0  0  0  0  0  0  0
    0.2821    0.4324    0.0000 O   0  0  0  0  0  0  0  0  0  0  0  0
    0.2821   -1.5593    0.0000 N   0  0  0  0  0  0  0  0  0  0  0  0
   -0.5148   -1.3458    0.0000 C   0  0  0  0  0  0  0  0  0  0  0  0
   -0.7283   -0.5489    0.0000 O   0  0  0  0  0  0  0  0  0  0  0  0
   -1.0982   -1.9292    0.0000 C   0  0  0  0  0  0  0  0  0  0  0  0
   -2.1907   -0.9455    0.0000 S   0  0  0  0  0  0  0  0  0  0  0  0
   -1.8950   -1.7157    0.0000 C   0  0  0  0  0  0  0  0  0  0  0  0
   -2.5362   -2.2348    0.0000 C   0  0  0  0  0  0  0  0  0  0  0  0
   -3.2281   -1.7855    0.0000 C   0  0  0  0  0  0  0  0  0  0  0  0
   -3.0146   -0.9886    0.0000 C   0  0  0  0  0  0  0  0  0  0  0  0
   -0.8846   -2.7261    0.0000 O   0  0  0  0  0  0  0  0  0  0  0  0
    3.8339    0.2615    0.0000 C   0  0  0  0  0  0  0  0  0  0  0  0
    4.5483   -0.1510    0.0000 S   0  0  0  0  0  0  0  0  0  0  0  0
    6.0165   -0.0740    0.0000 S   0  0  0  0  0  0  0  0  0  0  0  0
    5.2628    0.2615    0.0000 C   0  0  0  0  0  0  0  0  0  0  0  0
    5.3490    1.0820    0.0000 N   0  0  0  0  0  0  0  0  0  0  0  0
    6.1560    1.2535    0.0000 N   0  0  0  0  0  0  0  0  0  0  0  0
    6.5685    0.5391    0.0000 C   0  0  0  0  0  0  0  0  0  0  0  0
    7.3890    0.4528    0.0000 C   0  0  0  0  0  0  0  0  0  0  0  0
    7.8739    1.1203    0.0000 N   0  0  0  0  0  0  0  0  0  0  0  0
  1  2  1  0  0  0  0
  2  3  2  0  0  0  0
  3  4  1  0  0  0  0
  4  5  1  0  0  0  0
  6  5  1  0  0  0  0
  6  1  1  6  0  0  0
  6  7  1  0  0  0  0
  7  8  1  0  0  0  0
  1  8  1  0  0  0  0
  9 10  1  0  0  0  0
  9 11  2  0  0  0  0
  2  9  1  0  0  0  0
  8 12  2  0  0  0  0
 14 15  2  0  0  0  0
 14 16  1  0  0  0  0
 17 18  1  0  0  0  0
 18 19  2  0  0  0  0
 19 20  1  0  0  0  0
 20 21  2  0  0  0  0
 17 21  1  0  0  0  0
 16 18  1  0  0  0  0
 16 22  1  0  0  0  0
 13 14  1  0  0  0  0
  7 13  1  1  0  0  0
 25 26  1  0  0  0  0
 26 27  2  0  0  0  0
 27 28  1  0  0  0  0
 28 29  2  0  0  0  0
 25 29  1  0  0  0  0
 30 31  1  0  0  0  0
 29 30  1  0  0  0  0
 24 26  1  0  0  0  0
 23 24  1  0  0  0  0
  3 23  1  0  0  0  0
M  END
>  <type>
systematic

$$$$
(4R)-4-[[2-[4-[[(4-Fluoro-3-methylphenyl)amino]carbonyl]-1,3,5-trimethyl-1H-pyrrol-2-yl]-2-oxoacetyl]amino]-1-methyl-L-proline
  Mrv2401 11032419082D          

 33 35  0  0  1  0            999 V2000
    1.0032   -6.5261    0.0000 N   0  0  0  0  0  0  0  0  0  0  0  0
    1.6706   -7.0110    0.0000 C   0  0  0  0  0  0  0  0  0  0  0  0
    1.4157   -7.7956    0.0000 C   0  0  1  0  0  0  0  0  0  0  0  0
    0.5907   -7.7956    0.0000 C   0  0  0  0  0  0  0  0  0  0  0  0
    0.3357   -7.0110    0.0000 C   0  0  1  0  0  0  0  0  0  0  0  0
   -0.4489   -6.7561    0.0000 C   0  0  0  0  0  0  0  0  0  0  0  0
   -0.6204   -5.9491    0.0000 O   0  0  0  0  0  0  0  0  0  0  0  0
   -1.0620   -7.3081    0.0000 O   0  0  0  0  0  0  0  0  0  0  0  0
    1.0032   -5.7011    0.0000 C   0  0  0  0  0  0  0  0  0  0  0  0
    1.9006   -8.4631    0.0000 N   0  0  0  0  0  0  0  0  0  0  0  0
    1.5650   -9.2168    0.0000 C   0  0  0  0  0  0  0  0  0  0  0  0
    0.7445   -9.3030    0.0000 O   0  0  0  0  0  0  0  0  0  0  0  0
    2.0499   -9.8842    0.0000 C   0  0  0  0  0  0  0  0  0  0  0  0
    2.8704   -9.7980    0.0000 O   0  0  0  0  0  0  0  0  0  0  0  0
    0.9074  -10.8094    0.0000 N   0  0  0  0  0  0  0  0  0  0  0  0
    1.7144  -10.6379    0.0000 C   0  0  0  0  0  0  0  0  0  0  0  0
    2.1269  -11.3523    0.0000 C   0  0  0  0  0  0  0  0  0  0  0  0
    1.5749  -11.9654    0.0000 C   0  0  0  0  0  0  0  0  0  0  0  0
    0.8212  -11.6299    0.0000 C   0  0  0  0  0  0  0  0  0  0  0  0
    0.2943  -10.2574    0.0000 C   0  0  0  0  0  0  0  0  0  0  0  0
    2.9474  -11.4386    0.0000 C   0  0  0  0  0  0  0  0  0  0  0  0
    0.1067  -12.0424    0.0000 C   0  0  0  0  0  0  0  0  0  0  0  0
    1.7464  -12.7724    0.0000 C   0  0  0  0  0  0  0  0  0  0  0  0
    1.1333  -13.3244    0.0000 O   0  0  0  0  0  0  0  0  0  0  0  0
    2.5310  -13.0273    0.0000 N   0  0  0  0  0  0  0  0  0  0  0  0
    2.7025  -13.8343    0.0000 C   0  0  0  0  0  0  0  0  0  0  0  0
    3.4871  -14.0893    0.0000 C   0  0  0  0  0  0  0  0  0  0  0  0
    3.6587  -14.8962    0.0000 C   0  0  0  0  0  0  0  0  0  0  0  0
    3.0456  -15.4483    0.0000 C   0  0  0  0  0  0  0  0  0  0  0  0
    2.2610  -15.1933    0.0000 C   0  0  0  0  0  0  0  0  0  0  0  0
    2.0894  -14.3864    0.0000 C   0  0  0  0  0  0  0  0  0  0  0  0
    4.4433  -15.1512    0.0000 C   0  0  0  0  0  0  0  0  0  0  0  0
    3.2171  -16.2552    0.0000 F   0  0  0  0  0  0  0  0  0  0  0  0
  1  2  1  0  0  0  0
  3  2  1  0  0  0  0
  3  4  1  0  0  0  0
  5  4  1  0  0  0  0
  5  1  1  0  0  0  0
  5  6  1  1  0  0  0
  6  7  1  0  0  0  0
  6  8  2  0  0  0  0
  1  9  1  0  0  0  0
 11 12  2  0  0  0  0
 11 13  1  0  0  0  0
 13 14  2  0  0  0  0
 15 16  1  0  0  0  0
 16 17  2  0  0  0  0
 17 18  1  0  0  0  0
 18 19  2  0  0  0  0
 15 19  1  0  0  0  0
 15 20  1  0  0  0  0
 17 21  1  0  0  0  0
 19 22  1  0  0  0  0
 23 24  2  0  0  0  0
 26 27  2  0  0  0  0
 27 28  1  0  0  0  0
 28 29  2  0  0  0  0
 29 30  1  0  0  0  0
 30 31  2  0  0  0  0
 26 31  1  0  0  0  0
 28 32  1  0  0  0  0
 29 33  1  0  0  0  0
 25 26  1  0  0  0  0
 23 25  1  0  0  0  0
 18 23  1  0  0  0  0
 13 16  1  0  0  0  0
 10 11  1  0  0  0  0
  3 10  1  6  0  0  0
M  END
>  <type>
systematic

$$$$
5-Thia-1-azabicyclo[4.2.0]oct-2-ene-2-carboxylic acid, 3-[(acetyloxy)methyl]-7-[[(2-amino-4-thiazolyl)oxoacetyl]amino]-8-oxo-, 5-oxide, [5 S-(5α,6β,7α)]-
  Mrv2401 11032419092D          

 29 31  0  0  1  0            999 V2000
    1.6905   -0.1510    0.0000 N   0  0  0  0  0  0  0  0  0  0  0  0
    2.4049    0.2615    0.0000 C   0  0  0  0  0  0  0  0  0  0  0  0
    3.1194   -0.1510    0.0000 C   0  0  0  0  0  0  0  0  0  0  0  0
    3.1194   -0.9760    0.0000 C   0  0  0  0  0  0  0  0  0  0  0  0
    2.4049   -1.3885    0.0000 S   0  0  1  0  0  0  0  0  0  0  0  0
    1.6905   -0.9760    0.0000 C   0  0  2  0  0  0  0  0  0  0  0  0
    0.8655   -0.9760    0.0000 C   0  0  1  0  0  0  0  0  0  0  0  0
    0.8655   -0.1510    0.0000 C   0  0  0  0  0  0  0  0  0  0  0  0
    2.4049    1.0865    0.0000 C   0  0  0  0  0  0  0  0  0  0  0  0
    3.1194    1.4990    0.0000 O   0  0  0  0  0  0  0  0  0  0  0  0
    1.6905    1.4990    0.0000 O   0  0  0  0  0  0  0  0  0  0  0  0
    0.2821    0.4324    0.0000 O   0  0  0  0  0  0  0  0  0  0  0  0
    0.2821   -1.5593    0.0000 N   0  0  0  0  0  0  0  0  0  0  0  0
   -0.5148   -1.3458    0.0000 C   0  0  0  0  0  0  0  0  0  0  0  0
   -0.7283   -0.5489    0.0000 O   0  0  0  0  0  0  0  0  0  0  0  0
   -1.0982   -1.9292    0.0000 C   0  0  0  0  0  0  0  0  0  0  0  0
   -0.8846   -2.7261    0.0000 O   0  0  0  0  0  0  0  0  0  0  0  0
   -3.2281   -1.7855    0.0000 S   0  0  0  0  0  0  0  0  0  0  0  0
   -3.0146   -0.9886    0.0000 C   0  0  0  0  0  0  0  0  0  0  0  0
   -2.1907   -0.9455    0.0000 N   0  0  0  0  0  0  0  0  0  0  0  0
   -1.8950   -1.7157    0.0000 C   0  0  0  0  0  0  0  0  0  0  0  0
   -2.5362   -2.2348    0.0000 C   0  0  0  0  0  0  0  0  0  0  0  0
   -3.5338   -0.3475    0.0000 N   0  0  0  0  0  0  0  0  0  0  0  0
    3.8339    0.2615    0.0000 C   0  0  0  0  0  0  0  0  0  0  0  0
    3.8339    1.0865    0.0000 O   0  0  0  0  0  0  0  0  0  0  0  0
    4.5483    1.4990    0.0000 C   0  0  0  0  0  0  0  0  0  0  0  0
    4.5483    2.3240    0.0000 O   0  0  0  0  0  0  0  0  0  0  0  0
    5.2628    1.0865    0.0000 C   0  0  0  0  0  0  0  0  0  0  0  0
    2.4049   -2.2135    0.0000 O   0  0  0  0  0  0  0  0  0  0  0  0
  1  2  1  0  0  0  0
  2  3  2  0  0  0  0
  3  4  1  0  0  0  0
  5  4  1  6  0  0  0
  6  5  1  0  0  0  0
  6  1  1  6  0  0  0
  6  7  1  0  0  0  0
  7  8  1  0  0  0  0
  1  8  1  0  0  0  0
  9 10  1  0  0  0  0
  9 11  2  0  0  0  0
  2  9  1  0  0  0  0
  8 12  2  0  0  0  0
 14 15  2  0  0  0  0
 14 16  1  0  0  0  0
 16 17  2  0  0  0  0
 18 19  1  0  0  0  0
 19 20  2  0  0  0  0
 20 21  1  0  0  0  0
 21 22  2  0  0  0  0
 18 22  1  0  0  0  0
 19 23  1  0  0  0  0
 16 21  1  0  0  0  0
 13 14  1  0  0  0  0
  7 13  1  6  0  0  0
 25 26  1  0  0  0  0
 26 27  2  0  0  0  0
 26 28  1  0  0  0  0
 24 25  1  0  0  0  0
  3 24  1  0  0  0  0
  5 29  2  0  0  0  0
M  END
>  <type>
systematic

$$$$
7H-Azeto[1,2- a][1,2,3]triazolo[1,5- c]pyrimidine-5-carboxylic acid, 8,8a-dihydro-8-[(hydroxyphenylacetyl)amino]-7-oxo-3-phenyl-, [8 S-[8α(S*),8aβ]]-
  Mrv2401 11032419102D          

 32 36  0  0  1  0            999 V2000
    0.1801   -0.9162    0.0000 C   0  0  0  0  0  0  0  0  0  0  0  0
    1.0045   -0.8855    0.0000 C   0  0  0  0  0  0  0  0  0  0  0  0
    1.6500    0.9812    0.0000 C   0  0  2  0  0  0  0  0  0  0  0  0
    2.0888    0.2826    0.0000 C   0  0  0  0  0  0  0  0  0  0  0  0
    1.3902   -0.1562    0.0000 N   0  0  0  0  0  0  0  0  0  0  0  0
    0.9514    0.5424    0.0000 C   0  0  0  0  0  0  0  0  0  0  0  0
    0.1270    0.5118    0.0000 N   0  0  0  0  0  0  0  0  0  0  0  0
   -0.4475    1.1039    0.0000 N   0  0  0  0  0  0  0  0  0  0  0  0
   -1.1881    0.7406    0.0000 N   0  0  0  0  0  0  0  0  0  0  0  0
   -1.0715   -0.0762    0.0000 C   0  0  0  0  0  0  0  0  0  0  0  0
   -0.2587   -0.2176    0.0000 C   0  0  0  0  0  0  0  0  0  0  0  0
    1.4433   -1.5842    0.0000 C   0  0  0  0  0  0  0  0  0  0  0  0
    1.0577   -2.3135    0.0000 O   0  0  0  0  0  0  0  0  0  0  0  0
    2.2677   -1.5535    0.0000 O   0  0  0  0  0  0  0  0  0  0  0  0
   -1.6636   -0.6506    0.0000 C   0  0  0  0  0  0  0  0  0  0  0  0
   -1.4622   -1.4506    0.0000 C   0  0  0  0  0  0  0  0  0  0  0  0
   -2.0543   -2.0251    0.0000 C   0  0  0  0  0  0  0  0  0  0  0  0
   -2.8479   -1.7995    0.0000 C   0  0  0  0  0  0  0  0  0  0  0  0
   -3.0493   -0.9995    0.0000 C   0  0  0  0  0  0  0  0  0  0  0  0
   -2.4572   -0.4250    0.0000 C   0  0  0  0  0  0  0  0  0  0  0  0
    2.8931    0.0988    0.0000 O   0  0  0  0  0  0  0  0  0  0  0  0
    1.8338    1.7855    0.0000 N   0  0  0  0  0  0  0  0  0  0  0  0
    2.6222    2.0285    0.0000 C   0  0  0  0  0  0  0  0  0  0  0  0
    3.2268    1.4672    0.0000 O   0  0  0  0  0  0  0  0  0  0  0  0
    2.8059    2.8328    0.0000 C   0  0  0  0  0  0  0  0  0  0  0  0
    3.5943    3.0758    0.0000 C   0  0  0  0  0  0  0  0  0  0  0  0
    3.7781    3.8801    0.0000 C   0  0  0  0  0  0  0  0  0  0  0  0
    4.5665    4.1231    0.0000 C   0  0  0  0  0  0  0  0  0  0  0  0
    5.1711    3.5618    0.0000 C   0  0  0  0  0  0  0  0  0  0  0  0
    4.9874    2.7575    0.0000 C   0  0  0  0  0  0  0  0  0  0  0  0
    4.1990    2.5145    0.0000 C   0  0  0  0  0  0  0  0  0  0  0  0
    2.2013    3.3940    0.0000 O   0  0  0  0  0  0  0  0  0  0  0  0
  1 11  1  0  0  0  0
  7  6  1  0  0  0  0
  5  2  1  0  0  0  0
  1  2  2  0  0  0  0
  3  4  1  0  0  0  0
  4  5  1  0  0  0  0
  5  6  1  0  0  0  0
  3  6  1  0  0  0  0
  7  8  1  0  0  0  0
  8  9  2  0  0  0  0
  9 10  1  0  0  0  0
 10 11  2  0  0  0  0
  7 11  1  0  0  0  0
 12 13  1  0  0  0  0
 12 14  2  0  0  0  0
  2 12  1  0  0  0  0
 15 16  2  0  0  0  0
 16 17  1  0  0  0  0
 17 18  2  0  0  0  0
 18 19  1  0  0  0  0
 19 20  2  0  0  0  0
 15 20  1  0  0  0  0
 10 15  1  0  0  0  0
  4 21  2  0  0  0  0
 23 24  2  0  0  0  0
 23 25  1  0  0  0  0
 26 27  2  0  0  0  0
 27 28  1  0  0  0  0
 28 29  2  0  0  0  0
 29 30  1  0  0  0  0
 30 31  2  0  0  0  0
 26 31  1  0  0  0  0
 25 26  1  0  0  0  0
 25 32  1  0  0  0  0
 22 23  1  0  0  0  0
  3 22  1  6  0  0  0
M  END
>  <type>
systematic

$$$$
5-Thia-1-azabicyclo[4.2.0]oct-2-ene-2-carboxylic acid, 3-[5-(dimethylamino)-1,3,4-thiadiazol-2-yl]-7-[(hydroxyphenylacetyl)amino]-8-oxo-, [6 R-[6α,7β(R*)]]-
  Mrv2401 11032419112D          

  0  0  0     0  0            999 V3000
M  V30 BEGIN CTAB
M  V30 COUNTS 31 34 0 0 1
M  V30 BEGIN ATOM
M  V30 1 N 3.1555 -0.2818 0 0
M  V30 2 C 4.4892 0.4882 0 0
M  V30 3 C 5.8229 -0.2818 0 0
M  V30 4 C 5.8229 -1.8218 0 0
M  V30 5 S 4.4892 -2.5918 0 0
M  V30 6 C 3.1555 -1.8218 0 0 CFG=2
M  V30 7 C 1.6155 -1.8218 0 0 CFG=1
M  V30 8 C 1.6155 -0.2818 0 0
M  V30 9 C 4.4892 2.0282 0 0
M  V30 10 O 5.8229 2.7982 0 0
M  V30 11 O 3.1555 2.7982 0 0
M  V30 12 O 0.5266 0.8071 0 0
M  V30 13 N 0.5266 -2.9108 0 0
M  V30 14 C -0.961 -2.5122 0 0
M  V30 15 O -1.3595 -1.0247 0 0
M  V30 16 C -2.0499 -3.6011 0 0
M  V30 17 C -3.5374 -3.2026 0 0
M  V30 18 C -4.6264 -4.2915 0 0
M  V30 19 C -6.1139 -3.8929 0 0
M  V30 20 C -6.5125 -2.4054 0 0
M  V30 21 C -5.4235 -1.3165 0 0
M  V30 22 C -3.936 -1.715 0 0
M  V30 23 O -1.6513 -5.0887 0 0
M  V30 24 S 8.5634 -0.1382 0 0
M  V30 25 C 7.1566 0.4882 0 0
M  V30 26 N 7.3175 2.0197 0 0
M  V30 27 N 8.8239 2.3399 0 0
M  V30 28 C 9.5939 1.0062 0 0
M  V30 29 N 11.1254 0.8453 0 0
M  V30 30 C 12.0306 2.0911 0 0
M  V30 31 C 11.7518 -0.5616 0 0
M  V30 END ATOM
M  V30 BEGIN BOND
M  V30 1 1 1 2
M  V30 2 2 2 3
M  V30 3 1 3 4
M  V30 4 1 4 5
M  V30 5 1 6 5
M  V30 6 1 6 1 CFG=3
M  V30 7 1 6 7
M  V30 8 1 7 8
M  V30 9 1 1 8
M  V30 10 1 9 10
M  V30 11 2 9 11
M  V30 12 1 2 9
M  V30 13 2 8 12
M  V30 14 2 14 15
M  V30 15 1 14 16
M  V30 16 2 17 18
M  V30 17 1 18 19
M  V30 18 2 19 20
M  V30 19 1 20 21
M  V30 20 2 21 22
M  V30 21 1 17 22
M  V30 22 1 16 17
M  V30 23 1 16 23
M  V30 24 1 13 14
M  V30 25 1 7 13 CFG=3
M  V30 26 1 24 25
M  V30 27 2 25 26
M  V30 28 1 26 27
M  V30 29 2 27 28
M  V30 30 1 24 28
M  V30 31 1 29 30
M  V30 32 1 29 31
M  V30 33 1 28 29
M  V30 34 1 3 25
M  V30 END BOND
M  V30 BEGIN COLLECTION
M  V30 MDLV30/STEREL1 ATOMS=(1 7)
M  V30 END COLLECTION
M  V30 END CTAB
M  END
>  <type>
systematic

$$$$
5-Thia-1-azabicyclo[4.2.0]oct-2-ene-2-carboxylic acid, 3-[(acetyloxy)methyl]-7-[[[2-(formylamino)-4-thiazolyl]oxoacetyl]amino]-8-oxo-, (6R-trans)-
  Mrv2401 11032419112D          

 30 32  0  0  1  0            999 V2000
    1.6905   -0.1510    0.0000 N   0  0  0  0  0  0  0  0  0  0  0  0
    2.4049    0.2615    0.0000 C   0  0  0  0  0  0  0  0  0  0  0  0
    3.1194   -0.1510    0.0000 C   0  0  0  0  0  0  0  0  0  0  0  0
    3.1194   -0.9760    0.0000 C   0  0  0  0  0  0  0  0  0  0  0  0
    2.4049   -1.3885    0.0000 S   0  0  0  0  0  0  0  0  0  0  0  0
    1.6905   -0.9760    0.0000 C   0  0  2  0  0  0  0  0  0  0  0  0
    0.8655   -0.9760    0.0000 C   0  0  0  0  0  0  0  0  0  0  0  0
    0.8655   -0.1510    0.0000 C   0  0  0  0  0  0  0  0  0  0  0  0
    2.4049    1.0865    0.0000 C   0  0  0  0  0  0  0  0  0  0  0  0
    3.1194    1.4990    0.0000 O   0  0  0  0  0  0  0  0  0  0  0  0
    1.6905    1.4990    0.0000 O   0  0  0  0  0  0  0  0  0  0  0  0
    0.2821    0.4324    0.0000 O   0  0  0  0  0  0  0  0  0  0  0  0
    0.2821   -1.5593    0.0000 N   0  0  0  0  0  0  0  0  0  0  0  0
   -0.5148   -1.3458    0.0000 C   0  0  0  0  0  0  0  0  0  0  0  0
   -0.7283   -0.5489    0.0000 O   0  0  0  0  0  0  0  0  0  0  0  0
   -1.0982   -1.9292    0.0000 C   0  0  0  0  0  0  0  0  0  0  0  0
   -0.8846   -2.7261    0.0000 O   0  0  0  0  0  0  0  0  0  0  0  0
   -3.2281   -1.7855    0.0000 S   0  0  0  0  0  0  0  0  0  0  0  0
   -3.0146   -0.9886    0.0000 C   0  0  0  0  0  0  0  0  0  0  0  0
   -2.1907   -0.9455    0.0000 N   0  0  0  0  0  0  0  0  0  0  0  0
   -1.8950   -1.7157    0.0000 C   0  0  0  0  0  0  0  0  0  0  0  0
   -2.5362   -2.2348    0.0000 C   0  0  0  0  0  0  0  0  0  0  0  0
   -3.5338   -0.3475    0.0000 N   0  0  0  0  0  0  0  0  0  0  0  0
   -4.3486   -0.4765    0.0000 C   0  0  0  0  0  0  0  0  0  0  0  0
   -4.8678    0.1646    0.0000 O   0  0  0  0  0  0  0  0  0  0  0  0
    3.8339    0.2615    0.0000 C   0  0  0  0  0  0  0  0  0  0  0  0
    3.8339    1.0865    0.0000 O   0  0  0  0  0  0  0  0  0  0  0  0
    4.5483    1.4990    0.0000 C   0  0  0  0  0  0  0  0  0  0  0  0
    4.5483    2.3240    0.0000 O   0  0  0  0  0  0  0  0  0  0  0  0
    5.2628    1.0865    0.0000 C   0  0  0  0  0  0  0  0  0  0  0  0
  1  2  1  0  0  0  0
  2  3  2  0  0  0  0
  3  4  1  0  0  0  0
  4  5  1  0  0  0  0
  6  5  1  0  0  0  0
  6  1  1  6  0  0  0
  6  7  1  0  0  0  0
  7  8  1  0  0  0  0
  1  8  1  0  0  0  0
  9 10  1  0  0  0  0
  9 11  2  0  0  0  0
  2  9  1  0  0  0  0
  8 12  2  0  0  0  0
 14 15  2  0  0  0  0
 14 16  1  0  0  0  0
 16 17  2  0  0  0  0
 18 19  1  0  0  0  0
 19 20  2  0  0  0  0
 20 21  1  0  0  0  0
 21 22  2  0  0  0  0
 18 22  1  0  0  0  0
 24 25  2  0  0  0  0
 23 24  1  0  0  0  0
 19 23  1  0  0  0  0
 16 21  1  0  0  0  0
 13 14  1  0  0  0  0
  7 13  1  0  0  0  0
 27 28  1  0  0  0  0
 28 29  2  0  0  0  0
 28 30  1  0  0  0  0
 26 27  1  0  0  0  0
  3 26  1  0  0  0  0
M  END
>  <type>
systematic

$$$$

  Mrv2401 11032419172D          

  0  0  0     0  0            999 V3000
M  V30 BEGIN CTAB
M  V30 COUNTS 32 34 0 0 1
M  V30 BEGIN ATOM
M  V30 1 N 3.1555 -0.2818 0 0
M  V30 2 C 4.4892 0.4882 0 0
M  V30 3 C 5.8229 -0.2818 0 0
M  V30 4 C 5.8229 -1.8218 0 0
M  V30 5 S 4.4892 -2.5918 0 0
M  V30 6 C 3.1555 -1.8218 0 0
M  V30 7 C 1.6155 -1.8218 0 0 CFG=2
M  V30 8 C 1.6155 -0.2818 0 0
M  V30 9 C 4.4892 2.0282 0 0
M  V30 10 O 5.8229 2.7982 0 0
M  V30 11 O 3.1555 2.7982 0 0
M  V30 12 O 0.5266 0.8071 0 0
M  V30 13 N 0.5266 -2.9108 0 0
M  V30 14 C -0.961 -2.5122 0 0
M  V30 15 O -1.3595 -1.0247 0 0
M  V30 16 C -2.0499 -3.6011 0 0
M  V30 17 C -3.5374 -3.2026 0 0
M  V30 18 C -4.6264 -4.2915 0 0
M  V30 19 C -6.1139 -3.8929 0 0
M  V30 20 C -6.5125 -2.4054 0 0
M  V30 21 C -5.4235 -1.3165 0 0
M  V30 22 C -3.936 -1.715 0 0
M  V30 23 O -1.6513 -5.0887 0 0
M  V30 24 O 8.5634 -0.1382 0 0
M  V30 25 C 7.1566 0.4882 0 0
M  V30 26 O -4.2278 -5.779 0 0
M  V30 27 Cl -5.8221 0.1711 0 0
M  V30 28 C -8 -2.0068 0 0
M  V30 29 C 9.8093 0.767 0 0
M  V30 30 C 11.2162 0.1406 0 0
M  V30 31 O 9.6483 2.2985 0 0
M  V30 32 C -5.3167 -6.868 0 0
M  V30 END ATOM
M  V30 BEGIN BOND
M  V30 1 1 1 2
M  V30 2 2 2 3
M  V30 3 1 3 4
M  V30 4 1 4 5
M  V30 5 1 6 5
M  V30 6 1 6 1
M  V30 7 1 6 7
M  V30 8 1 7 8
M  V30 9 1 1 8
M  V30 10 1 9 10
M  V30 11 2 9 11
M  V30 12 1 2 9
M  V30 13 2 8 12
M  V30 14 2 14 15
M  V30 15 1 14 16
M  V30 16 2 17 18
M  V30 17 1 18 19
M  V30 18 2 19 20
M  V30 19 1 20 21
M  V30 20 2 21 22
M  V30 21 1 17 22
M  V30 22 1 16 17
M  V30 23 2 16 23
M  V30 24 1 13 14
M  V30 25 1 7 13 CFG=1
M  V30 26 1 24 25
M  V30 27 1 3 25
M  V30 28 1 18 26
M  V30 29 1 21 27
M  V30 30 1 20 28
M  V30 31 1 24 29
M  V30 32 1 29 30
M  V30 33 2 29 31
M  V30 34 1 26 32
M  V30 END BOND
M  V30 BEGIN COLLECTION
M  V30 MDLV30/STEREL1 ATOMS=(1 7)
M  V30 END COLLECTION
M  V30 END CTAB
M  END
>  <type>
systematic

$$$$
(6R,7R)-7-[[(2R)-2-Hydroxy-2-phenylacetyl]amino]-3-[[(5-methyl-1,3,4-thiadiazol-2-yl)thio]methyl]-8-oxo-5-thia-1-azabicyclo[4.2.0]oct-2-ene-2-carboxylic acid
  Mrv2401 11032419182D          

 31 34  0  0  1  0            999 V2000
    1.6905   -0.1510    0.0000 N   0  0  0  0  0  0  0  0  0  0  0  0
    2.4049    0.2615    0.0000 C   0  0  0  0  0  0  0  0  0  0  0  0
    3.1194   -0.1510    0.0000 C   0  0  0  0  0  0  0  0  0  0  0  0
    3.1194   -0.9760    0.0000 C   0  0  0  0  0  0  0  0  0  0  0  0
    2.4049   -1.3885    0.0000 S   0  0  0  0  0  0  0  0  0  0  0  0
    1.6905   -0.9760    0.0000 C   0  0  2  0  0  0  0  0  0  0  0  0
    0.8655   -0.9760    0.0000 C   0  0  1  0  0  0  0  0  0  0  0  0
    0.8655   -0.1510    0.0000 C   0  0  0  0  0  0  0  0  0  0  0  0
    2.4049    1.0865    0.0000 C   0  0  0  0  0  0  0  0  0  0  0  0
    3.1194    1.4990    0.0000 O   0  0  0  0  0  0  0  0  0  0  0  0
    1.6905    1.4990    0.0000 O   0  0  0  0  0  0  0  0  0  0  0  0
    0.2821    0.4324    0.0000 O   0  0  0  0  0  0  0  0  0  0  0  0
    3.8339    0.2615    0.0000 C   0  0  0  0  0  0  0  0  0  0  0  0
    4.5483   -0.1510    0.0000 S   0  0  0  0  0  0  0  0  0  0  0  0
    6.0165   -0.0740    0.0000 S   0  0  0  0  0  0  0  0  0  0  0  0
    5.2628    0.2615    0.0000 C   0  0  0  0  0  0  0  0  0  0  0  0
    5.3490    1.0820    0.0000 N   0  0  0  0  0  0  0  0  0  0  0  0
    6.1560    1.2535    0.0000 N   0  0  0  0  0  0  0  0  0  0  0  0
    6.5685    0.5391    0.0000 C   0  0  0  0  0  0  0  0  0  0  0  0
    7.3890    0.4528    0.0000 C   0  0  0  0  0  0  0  0  0  0  0  0
    0.2821   -1.5593    0.0000 N   0  0  0  0  0  0  0  0  0  0  0  0
   -0.5148   -1.3458    0.0000 C   0  0  0  0  0  0  0  0  0  0  0  0
   -0.7283   -0.5489    0.0000 O   0  0  0  0  0  0  0  0  0  0  0  0
   -1.0982   -1.9292    0.0000 C   0  0  1  0  0  0  0  0  0  0  0  0
   -1.8950   -1.7157    0.0000 C   0  0  0  0  0  0  0  0  0  0  0  0
   -2.4784   -2.2990    0.0000 C   0  0  0  0  0  0  0  0  0  0  0  0
   -3.2753   -2.0855    0.0000 C   0  0  0  0  0  0  0  0  0  0  0  0
   -3.4888   -1.2886    0.0000 C   0  0  0  0  0  0  0  0  0  0  0  0
   -2.9055   -0.7052    0.0000 C   0  0  0  0  0  0  0  0  0  0  0  0
   -2.1086   -0.9188    0.0000 C   0  0  0  0  0  0  0  0  0  0  0  0
   -0.8846   -2.7261    0.0000 O   0  0  0  0  0  0  0  0  0  0  0  0
  1  2  1  0  0  0  0
  2  3  2  0  0  0  0
  3  4  1  0  0  0  0
  4  5  1  0  0  0  0
  6  5  1  0  0  0  0
  6  1  1  6  0  0  0
  6  7  1  0  0  0  0
  7  8  1  0  0  0  0
  1  8  1  0  0  0  0
  9 10  1  0  0  0  0
  9 11  2  0  0  0  0
  2  9  1  0  0  0  0
  8 12  2  0  0  0  0
 15 16  1  0  0  0  0
 16 17  2  0  0  0  0
 17 18  1  0  0  0  0
 18 19  2  0  0  0  0
 15 19  1  0  0  0  0
 19 20  1  0  0  0  0
 14 16  1  0  0  0  0
 13 14  1  0  0  0  0
  3 13  1  0  0  0  0
 22 23  2  0  0  0  0
 24 22  1  0  0  0  0
 25 26  2  0  0  0  0
 26 27  1  0  0  0  0
 27 28  2  0  0  0  0
 28 29  1  0  0  0  0
 29 30  2  0  0  0  0
 25 30  1  0  0  0  0
 24 25  1  0  0  0  0
 24 31  1  6  0  0  0
 21 22  1  0  0  0  0
  7 21  1  6  0  0  0
M  END
>  <type>
systematic

$$$$
5-Thia-1-azabicyclo[4.2.0]oct-2-ene-2-carboxylic acid, 7-[(hydroxyphenylacetyl)amino]-3-[[(5-methyl-1,3,4-thiadiazol-2-yl)thio]methyl]-8-oxo-, (6R,7R)-
  Mrv2401 11032419192D          

 31 34  0  0  1  0            999 V2000
    1.6905   -0.1510    0.0000 N   0  0  0  0  0  0  0  0  0  0  0  0
    2.4049    0.2615    0.0000 C   0  0  0  0  0  0  0  0  0  0  0  0
    3.1194   -0.1510    0.0000 C   0  0  0  0  0  0  0  0  0  0  0  0
    3.1194   -0.9760    0.0000 C   0  0  0  0  0  0  0  0  0  0  0  0
    2.4049   -1.3885    0.0000 S   0  0  0  0  0  0  0  0  0  0  0  0
    1.6905   -0.9760    0.0000 C   0  0  2  0  0  0  0  0  0  0  0  0
    0.8655   -0.9760    0.0000 C   0  0  1  0  0  0  0  0  0  0  0  0
    0.8655   -0.1510    0.0000 C   0  0  0  0  0  0  0  0  0  0  0  0
    2.4049    1.0865    0.0000 C   0  0  0  0  0  0  0  0  0  0  0  0
    3.1194    1.4990    0.0000 O   0  0  0  0  0  0  0  0  0  0  0  0
    1.6905    1.4990    0.0000 O   0  0  0  0  0  0  0  0  0  0  0  0
    0.2821    0.4324    0.0000 O   0  0  0  0  0  0  0  0  0  0  0  0
    3.8339    0.2615    0.0000 C   0  0  0  0  0  0  0  0  0  0  0  0
    4.5483   -0.1510    0.0000 S   0  0  0  0  0  0  0  0  0  0  0  0
    6.0165   -0.0740    0.0000 S   0  0  0  0  0  0  0  0  0  0  0  0
    5.2628    0.2615    0.0000 C   0  0  0  0  0  0  0  0  0  0  0  0
    5.3490    1.0820    0.0000 N   0  0  0  0  0  0  0  0  0  0  0  0
    6.1560    1.2535    0.0000 N   0  0  0  0  0  0  0  0  0  0  0  0
    6.5685    0.5391    0.0000 C   0  0  0  0  0  0  0  0  0  0  0  0
    7.3890    0.4528    0.0000 C   0  0  0  0  0  0  0  0  0  0  0  0
    0.2821   -1.5593    0.0000 N   0  0  0  0  0  0  0  0  0  0  0  0
   -0.5148   -1.3458    0.0000 C   0  0  0  0  0  0  0  0  0  0  0  0
   -0.7283   -0.5489    0.0000 O   0  0  0  0  0  0  0  0  0  0  0  0
   -1.0982   -1.9292    0.0000 C   0  0  0  0  0  0  0  0  0  0  0  0
   -1.8950   -1.7157    0.0000 C   0  0  0  0  0  0  0  0  0  0  0  0
   -2.4784   -2.2990    0.0000 C   0  0  0  0  0  0  0  0  0  0  0  0
   -3.2753   -2.0855    0.0000 C   0  0  0  0  0  0  0  0  0  0  0  0
   -3.4888   -1.2886    0.0000 C   0  0  0  0  0  0  0  0  0  0  0  0
   -2.9055   -0.7052    0.0000 C   0  0  0  0  0  0  0  0  0  0  0  0
   -2.1086   -0.9188    0.0000 C   0  0  0  0  0  0  0  0  0  0  0  0
   -0.8846   -2.7261    0.0000 O   0  0  0  0  0  0  0  0  0  0  0  0
  1  2  1  0  0  0  0
  2  3  2  0  0  0  0
  3  4  1  0  0  0  0
  4  5  1  0  0  0  0
  6  5  1  0  0  0  0
  6  1  1  6  0  0  0
  6  7  1  0  0  0  0
  7  8  1  0  0  0  0
  1  8  1  0  0  0  0
  9 10  1  0  0  0  0
  9 11  2  0  0  0  0
  2  9  1  0  0  0  0
  8 12  2  0  0  0  0
 15 16  1  0  0  0  0
 16 17  2  0  0  0  0
 17 18  1  0  0  0  0
 18 19  2  0  0  0  0
 15 19  1  0  0  0  0
 19 20  1  0  0  0  0
 14 16  1  0  0  0  0
 13 14  1  0  0  0  0
  3 13  1  0  0  0  0
 22 23  2  0  0  0  0
 22 24  1  0  0  0  0
 25 26  2  0  0  0  0
 26 27  1  0  0  0  0
 27 28  2  0  0  0  0
 28 29  1  0  0  0  0
 29 30  2  0  0  0  0
 25 30  1  0  0  0  0
 24 25  1  0  0  0  0
 24 31  1  0  0  0  0
 21 22  1  0  0  0  0
  7 21  1  6  0  0  0
M  END
>  <type>
systematic

$$$$
5-Thia-1-azabicyclo[4.2.0]oct-2-ene-2-carboxylic acid, 3-[[(2,5-dihydro-5-oxo-1H-1,2,4-triazol-3-yl)thio]methyl]-7-[(hydroxyphenylacetyl)amino]-8-oxo-, [6 R-(6α,7β)]-
  Mrv2401 11032419202D          

 31 34  0  0  1  0            999 V2000
    1.6905   -0.1510    0.0000 N   0  0  0  0  0  0  0  0  0  0  0  0
    2.4049    0.2615    0.0000 C   0  0  0  0  0  0  0  0  0  0  0  0
    3.1194   -0.1510    0.0000 C   0  0  0  0  0  0  0  0  0  0  0  0
    3.1194   -0.9760    0.0000 C   0  0  0  0  0  0  0  0  0  0  0  0
    2.4049   -1.3885    0.0000 S   0  0  0  0  0  0  0  0  0  0  0  0
    1.6905   -0.9760    0.0000 C   0  0  2  0  0  0  0  0  0  0  0  0
    0.8655   -0.9760    0.0000 C   0  0  2  0  0  0  0  0  0  0  0  0
    0.8655   -0.1510    0.0000 C   0  0  0  0  0  0  0  0  0  0  0  0
    2.4049    1.0865    0.0000 C   0  0  0  0  0  0  0  0  0  0  0  0
    3.1194    1.4990    0.0000 O   0  0  0  0  0  0  0  0  0  0  0  0
    1.6905    1.4990    0.0000 O   0  0  0  0  0  0  0  0  0  0  0  0
    0.2821    0.4324    0.0000 O   0  0  0  0  0  0  0  0  0  0  0  0
    0.2821   -1.5593    0.0000 N   0  0  0  0  0  0  0  0  0  0  0  0
   -0.5148   -1.3458    0.0000 C   0  0  0  0  0  0  0  0  0  0  0  0
   -0.7283   -0.5489    0.0000 O   0  0  0  0  0  0  0  0  0  0  0  0
   -1.0982   -1.9292    0.0000 C   0  0  0  0  0  0  0  0  0  0  0  0
   -1.8950   -1.7157    0.0000 C   0  0  0  0  0  0  0  0  0  0  0  0
   -2.4784   -2.2990    0.0000 C   0  0  0  0  0  0  0  0  0  0  0  0
   -3.2753   -2.0855    0.0000 C   0  0  0  0  0  0  0  0  0  0  0  0
   -3.4888   -1.2886    0.0000 C   0  0  0  0  0  0  0  0  0  0  0  0
   -2.9055   -0.7052    0.0000 C   0  0  0  0  0  0  0  0  0  0  0  0
   -2.1086   -0.9188    0.0000 C   0  0  0  0  0  0  0  0  0  0  0  0
   -0.8846   -2.7261    0.0000 O   0  0  0  0  0  0  0  0  0  0  0  0
    3.8339    0.2615    0.0000 C   0  0  0  0  0  0  0  0  0  0  0  0
    3.8339    1.0865    0.0000 S   0  0  0  0  0  0  0  0  0  0  0  0
    5.8540    1.7766    0.0000 N   0  0  0  0  0  0  0  0  0  0  0  0
    5.3020    1.1635    0.0000 N   0  0  0  0  0  0  0  0  0  0  0  0
    4.5483    1.4990    0.0000 C   0  0  0  0  0  0  0  0  0  0  0  0
    4.6346    2.3195    0.0000 N   0  0  0  0  0  0  0  0  0  0  0  0
    5.4415    2.4910    0.0000 C   0  0  0  0  0  0  0  0  0  0  0  0
    5.7771    3.2447    0.0000 O   0  0  0  0  0  0  0  0  0  0  0  0
  1  2  1  0  0  0  0
  2  3  2  0  0  0  0
  3  4  1  0  0  0  0
  4  5  1  0  0  0  0
  6  5  1  0  0  0  0
  6  1  1  6  0  0  0
  6  7  1  0  0  0  0
  7  8  1  0  0  0  0
  1  8  1  0  0  0  0
  9 10  1  0  0  0  0
  9 11  2  0  0  0  0
  2  9  1  0  0  0  0
  8 12  2  0  0  0  0
 14 15  2  0  0  0  0
 14 16  1  0  0  0  0
 17 18  2  0  0  0  0
 18 19  1  0  0  0  0
 19 20  2  0  0  0  0
 20 21  1  0  0  0  0
 21 22  2  0  0  0  0
 17 22  1  0  0  0  0
 16 17  1  0  0  0  0
 16 23  1  0  0  0  0
 13 14  1  0  0  0  0
  7 13  1  1  0  0  0
 26 27  1  0  0  0  0
 27 28  1  0  0  0  0
 28 29  2  0  0  0  0
 29 30  1  0  0  0  0
 26 30  1  0  0  0  0
 30 31  2  0  0  0  0
 25 28  1  0  0  0  0
 24 25  1  0  0  0  0
  3 24  1  0  0  0  0
M  END
>  <type>
systematic

$$$$
5-Thia-1-azabicyclo[4.2.0]oct-2-ene-2-carboxylic acid, 7-[(hydroxyphenylacetyl)amino]-3-[[(1-methyl-1H-imidazol-2-yl)thio]methyl]-8-oxo-, [6 R-(6α,7β)]-
  Mrv2401 11032419202D          

 31 34  0  0  1  0            999 V2000
    1.6905   -0.1510    0.0000 N   0  0  0  0  0  0  0  0  0  0  0  0
    2.4049    0.2615    0.0000 C   0  0  0  0  0  0  0  0  0  0  0  0
    3.1194   -0.1510    0.0000 C   0  0  0  0  0  0  0  0  0  0  0  0
    3.1194   -0.9760    0.0000 C   0  0  0  0  0  0  0  0  0  0  0  0
    2.4049   -1.3885    0.0000 S   0  0  0  0  0  0  0  0  0  0  0  0
    1.6905   -0.9760    0.0000 C   0  0  2  0  0  0  0  0  0  0  0  0
    0.8655   -0.9760    0.0000 C   0  0  2  0  0  0  0  0  0  0  0  0
    0.8655   -0.1510    0.0000 C   0  0  0  0  0  0  0  0  0  0  0  0
    2.4049    1.0865    0.0000 C   0  0  0  0  0  0  0  0  0  0  0  0
    3.1194    1.4990    0.0000 O   0  0  0  0  0  0  0  0  0  0  0  0
    1.6905    1.4990    0.0000 O   0  0  0  0  0  0  0  0  0  0  0  0
    0.2821    0.4324    0.0000 O   0  0  0  0  0  0  0  0  0  0  0  0
    3.8339    0.2615    0.0000 C   0  0  0  0  0  0  0  0  0  0  0  0
    4.5483   -0.1510    0.0000 S   0  0  0  0  0  0  0  0  0  0  0  0
    6.0165   -0.0740    0.0000 N   0  0  0  0  0  0  0  0  0  0  0  0
    5.2628    0.2615    0.0000 C   0  0  0  0  0  0  0  0  0  0  0  0
    5.3490    1.0820    0.0000 N   0  0  0  0  0  0  0  0  0  0  0  0
    6.1560    1.2535    0.0000 C   0  0  0  0  0  0  0  0  0  0  0  0
    6.5685    0.5391    0.0000 C   0  0  0  0  0  0  0  0  0  0  0  0
    6.1880   -0.8810    0.0000 C   0  0  0  0  0  0  0  0  0  0  0  0
    0.2821   -1.5593    0.0000 N   0  0  0  0  0  0  0  0  0  0  0  0
   -0.5148   -1.3458    0.0000 C   0  0  0  0  0  0  0  0  0  0  0  0
   -0.7283   -0.5489    0.0000 O   0  0  0  0  0  0  0  0  0  0  0  0
   -1.0982   -1.9292    0.0000 C   0  0  0  0  0  0  0  0  0  0  0  0
   -1.8950   -1.7157    0.0000 C   0  0  0  0  0  0  0  0  0  0  0  0
   -2.4784   -2.2990    0.0000 C   0  0  0  0  0  0  0  0  0  0  0  0
   -3.2753   -2.0855    0.0000 C   0  0  0  0  0  0  0  0  0  0  0  0
   -3.4888   -1.2886    0.0000 C   0  0  0  0  0  0  0  0  0  0  0  0
   -2.9055   -0.7052    0.0000 C   0  0  0  0  0  0  0  0  0  0  0  0
   -2.1086   -0.9188    0.0000 C   0  0  0  0  0  0  0  0  0  0  0  0
   -0.8846   -2.7261    0.0000 O   0  0  0  0  0  0  0  0  0  0  0  0
  1  2  1  0  0  0  0
  2  3  2  0  0  0  0
  3  4  1  0  0  0  0
  4  5  1  0  0  0  0
  6  5  1  0  0  0  0
  6  1  1  6  0  0  0
  6  7  1  0  0  0  0
  7  8  1  0  0  0  0
  1  8  1  0  0  0  0
  9 10  1  0  0  0  0
  9 11  2  0  0  0  0
  2  9  1  0  0  0  0
  8 12  2  0  0  0  0
 15 16  1  0  0  0  0
 16 17  2  0  0  0  0
 17 18  1  0  0  0  0
 18 19  2  0  0  0  0
 15 19  1  0  0  0  0
 15 20  1  0  0  0  0
 14 16  1  0  0  0  0
 13 14  1  0  0  0  0
  3 13  1  0  0  0  0
 22 23  2  0  0  0  0
 22 24  1  0  0  0  0
 25 26  2  0  0  0  0
 26 27  1  0  0  0  0
 27 28  2  0  0  0  0
 28 29  1  0  0  0  0
 29 30  2  0  0  0  0
 25 30  1  0  0  0  0
 24 25  1  0  0  0  0
 24 31  1  0  0  0  0
 21 22  1  0  0  0  0
  7 21  1  1  0  0  0
M  END
>  <type>
systematic

$$$$
5-Thia-1-azabicyclo[4.2.0]oct-2-ene-2-carboxylic acid, 7-[(hydroxyphenylacetyl)amino]-3-[[(1-methyl-1H-imidazol-2-yl)thio]methyl]-8-oxo-, [6 R-[6α,7β(R*)]]-
  Mrv2401 11032419212D          

  0  0  0     0  0            999 V3000
M  V30 BEGIN CTAB
M  V30 COUNTS 31 34 0 0 1
M  V30 BEGIN ATOM
M  V30 1 N 3.1555 -0.2818 0 0
M  V30 2 C 4.4892 0.4882 0 0
M  V30 3 C 5.8229 -0.2818 0 0
M  V30 4 C 5.8229 -1.8218 0 0
M  V30 5 S 4.4892 -2.5918 0 0
M  V30 6 C 3.1555 -1.8218 0 0 CFG=2
M  V30 7 C 1.6155 -1.8218 0 0 CFG=1
M  V30 8 C 1.6155 -0.2818 0 0
M  V30 9 C 4.4892 2.0282 0 0
M  V30 10 O 5.8229 2.7982 0 0
M  V30 11 O 3.1555 2.7982 0 0
M  V30 12 O 0.5266 0.8071 0 0
M  V30 13 C 7.1566 0.4882 0 0
M  V30 14 S 8.4902 -0.2818 0 0
M  V30 15 N 11.2308 -0.1382 0 0
M  V30 16 C 9.8239 0.4882 0 0
M  V30 17 N 9.9849 2.0197 0 0
M  V30 18 C 11.4912 2.3399 0 0
M  V30 19 C 12.2612 1.0062 0 0
M  V30 20 C 11.551 -1.6446 0 0
M  V30 21 N 0.5266 -2.9108 0 0
M  V30 22 C -0.961 -2.5122 0 0
M  V30 23 O -1.3595 -1.0247 0 0
M  V30 24 C -2.0499 -3.6011 0 0
M  V30 25 C -3.5374 -3.2026 0 0
M  V30 26 C -4.6264 -4.2915 0 0
M  V30 27 C -6.1139 -3.8929 0 0
M  V30 28 C -6.5125 -2.4054 0 0
M  V30 29 C -5.4235 -1.3165 0 0
M  V30 30 C -3.936 -1.715 0 0
M  V30 31 O -1.6513 -5.0887 0 0
M  V30 END ATOM
M  V30 BEGIN BOND
M  V30 1 1 1 2
M  V30 2 2 2 3
M  V30 3 1 3 4
M  V30 4 1 4 5
M  V30 5 1 6 5
M  V30 6 1 6 1 CFG=3
M  V30 7 1 6 7
M  V30 8 1 7 8
M  V30 9 1 1 8
M  V30 10 1 9 10
M  V30 11 2 9 11
M  V30 12 1 2 9
M  V30 13 2 8 12
M  V30 14 1 15 16
M  V30 15 2 16 17
M  V30 16 1 17 18
M  V30 17 2 18 19
M  V30 18 1 15 19
M  V30 19 1 15 20
M  V30 20 1 14 16
M  V30 21 1 13 14
M  V30 22 1 3 13
M  V30 23 2 22 23
M  V30 24 1 22 24
M  V30 25 2 25 26
M  V30 26 1 26 27
M  V30 27 2 27 28
M  V30 28 1 28 29
M  V30 29 2 29 30
M  V30 30 1 25 30
M  V30 31 1 24 25
M  V30 32 1 24 31
M  V30 33 1 21 22
M  V30 34 1 7 21 CFG=3
M  V30 END BOND
M  V30 BEGIN COLLECTION
M  V30 MDLV30/STEREL1 ATOMS=(1 7)
M  V30 END COLLECTION
M  V30 END CTAB
M  END
>  <type>
systematic

$$$$
5-Thia-1-azabicyclo[4.2.0]oct-2-ene-2-carboxylic acid, 7-[(hydroxyphenylacetyl)amino]-3-[[(5-methyl-1,3,4-thiadiazol-2-yl)thio]methyl]-8-oxo-, [6 R-[6α,7β(S*)]]-
  Mrv2401 11032419222D          

  0  0  0     0  0            999 V3000
M  V30 BEGIN CTAB
M  V30 COUNTS 31 34 0 0 1
M  V30 BEGIN ATOM
M  V30 1 N 3.1555 -0.2818 0 0
M  V30 2 C 4.4892 0.4882 0 0
M  V30 3 C 5.8229 -0.2818 0 0
M  V30 4 C 5.8229 -1.8218 0 0
M  V30 5 S 4.4892 -2.5918 0 0
M  V30 6 C 3.1555 -1.8218 0 0 CFG=2
M  V30 7 C 1.6155 -1.8218 0 0 CFG=2
M  V30 8 C 1.6155 -0.2818 0 0
M  V30 9 C 4.4892 2.0282 0 0
M  V30 10 O 5.8229 2.7982 0 0
M  V30 11 O 3.1555 2.7982 0 0
M  V30 12 O 0.5266 0.8071 0 0
M  V30 13 C 7.1566 0.4882 0 0
M  V30 14 S 8.4902 -0.2818 0 0
M  V30 15 S 11.2308 -0.1382 0 0
M  V30 16 C 9.8239 0.4882 0 0
M  V30 17 N 9.9849 2.0197 0 0
M  V30 18 N 11.4912 2.3399 0 0
M  V30 19 C 12.2612 1.0062 0 0
M  V30 20 C 13.7928 0.8453 0 0
M  V30 21 N 0.5266 -2.9108 0 0
M  V30 22 C -0.961 -2.5122 0 0
M  V30 23 O -1.3595 -1.0247 0 0
M  V30 24 C -2.0499 -3.6011 0 0
M  V30 25 C -3.5374 -3.2026 0 0
M  V30 26 C -4.6264 -4.2915 0 0
M  V30 27 C -6.1139 -3.8929 0 0
M  V30 28 C -6.5125 -2.4054 0 0
M  V30 29 C -5.4235 -1.3165 0 0
M  V30 30 C -3.936 -1.715 0 0
M  V30 31 O -1.6513 -5.0887 0 0
M  V30 END ATOM
M  V30 BEGIN BOND
M  V30 1 1 1 2
M  V30 2 2 2 3
M  V30 3 1 3 4
M  V30 4 1 4 5
M  V30 5 1 6 5
M  V30 6 1 6 1 CFG=3
M  V30 7 1 6 7
M  V30 8 1 7 8
M  V30 9 1 1 8
M  V30 10 1 9 10
M  V30 11 2 9 11
M  V30 12 1 2 9
M  V30 13 2 8 12
M  V30 14 1 15 16
M  V30 15 2 16 17
M  V30 16 1 17 18
M  V30 17 2 18 19
M  V30 18 1 15 19
M  V30 19 1 19 20
M  V30 20 1 14 16
M  V30 21 1 13 14
M  V30 22 1 3 13
M  V30 23 2 22 23
M  V30 24 1 22 24
M  V30 25 2 25 26
M  V30 26 1 26 27
M  V30 27 2 27 28
M  V30 28 1 28 29
M  V30 29 2 29 30
M  V30 30 1 25 30
M  V30 31 1 24 25
M  V30 32 1 24 31
M  V30 33 1 21 22
M  V30 34 1 7 21 CFG=1
M  V30 END BOND
M  V30 BEGIN COLLECTION
M  V30 MDLV30/STEREL1 ATOMS=(1 7)
M  V30 END COLLECTION
M  V30 END CTAB
M  END
>  <type>
systematic

$$$$
3-[2-[4-(2,5-Dimethyl-1H-pyrrol-1-yl)benzoyl]hydrazinylidene]-2,3-dihydro-2-oxo-1H-indole-5-carboxylic acid
  Mrv2401 11032419452D          

 30 33  0  0  0  0            999 V2000
    0.6538   -0.6979    0.0000 C   0  0  0  0  0  0  0  0  0  0  0  0
    1.1387   -0.0305    0.0000 C   0  0  0  0  0  0  0  0  0  0  0  0
    1.9233   -0.2854    0.0000 C   0  0  0  0  0  0  0  0  0  0  0  0
    2.6378    0.1271    0.0000 C   0  0  0  0  0  0  0  0  0  0  0  0
    3.3523   -0.2854    0.0000 C   0  0  0  0  0  0  0  0  0  0  0  0
    3.3523   -1.1104    0.0000 C   0  0  0  0  0  0  0  0  0  0  0  0
    2.6378   -1.5229    0.0000 C   0  0  0  0  0  0  0  0  0  0  0  0
    1.9233   -1.1104    0.0000 C   0  0  0  0  0  0  0  0  0  0  0  0
    1.1387   -1.3654    0.0000 N   0  0  0  0  0  0  0  0  0  0  0  0
    4.0668    0.1271    0.0000 C   0  0  0  0  0  0  0  0  0  0  0  0
    4.7812   -0.2854    0.0000 O   0  0  0  0  0  0  0  0  0  0  0  0
    4.0668    0.9521    0.0000 O   0  0  0  0  0  0  0  0  0  0  0  0
   -0.1712   -0.6979    0.0000 O   0  0  0  0  0  0  0  0  0  0  0  0
    0.8838    0.7541    0.0000 N   0  0  0  0  0  0  0  0  0  0  0  0
    0.0768    0.9256    0.0000 N   0  0  0  0  0  0  0  0  0  0  0  0
   -0.1781    1.7103    0.0000 C   0  0  0  0  0  0  0  0  0  0  0  0
    0.3739    2.3234    0.0000 O   0  0  0  0  0  0  0  0  0  0  0  0
   -0.9851    1.8818    0.0000 C   0  0  0  0  0  0  0  0  0  0  0  0
   -1.5371    1.2687    0.0000 C   0  0  0  0  0  0  0  0  0  0  0  0
   -2.3441    1.4402    0.0000 C   0  0  0  0  0  0  0  0  0  0  0  0
   -2.5990    2.2248    0.0000 C   0  0  0  0  0  0  0  0  0  0  0  0
   -2.0470    2.8379    0.0000 C   0  0  0  0  0  0  0  0  0  0  0  0
   -1.2400    2.6664    0.0000 C   0  0  0  0  0  0  0  0  0  0  0  0
   -3.4060    2.3964    0.0000 N   0  0  0  0  0  0  0  0  0  0  0  0
   -4.0191    1.8443    0.0000 C   0  0  0  0  0  0  0  0  0  0  0  0
   -4.7336    2.2568    0.0000 C   0  0  0  0  0  0  0  0  0  0  0  0
   -4.5621    3.0638    0.0000 C   0  0  0  0  0  0  0  0  0  0  0  0
   -3.7416    3.1501    0.0000 C   0  0  0  0  0  0  0  0  0  0  0  0
   -3.9329    1.0239    0.0000 C   0  0  0  0  0  0  0  0  0  0  0  0
   -3.3291    3.8645    0.0000 C   0  0  0  0  0  0  0  0  0  0  0  0
  1  2  1  0  0  0  0
  2  3  1  0  0  0  0
  3  4  2  0  0  0  0
  4  5  1  0  0  0  0
  5  6  2  0  0  0  0
  6  7  1  0  0  0  0
  7  8  2  0  0  0  0
  3  8  1  0  0  0  0
  8  9  1  0  0  0  0
  1  9  1  0  0  0  0
 10 11  1  0  0  0  0
 10 12  2  0  0  0  0
  5 10  1  0  0  0  0
  1 13  2  0  0  0  0
 14 15  1  4  0  0  0
 16 17  2  0  0  0  0
 16 18  1  0  0  0  0
 18 19  2  0  0  0  0
 19 20  1  0  0  0  0
 20 21  2  0  0  0  0
 21 22  1  0  0  0  0
 22 23  2  0  0  0  0
 18 23  1  0  0  0  0
 24 25  1  0  0  0  0
 25 26  2  0  0  0  0
 26 27  1  0  0  0  0
 27 28  2  0  0  0  0
 24 28  1  0  0  0  0
 25 29  1  0  0  0  0
 28 30  1  0  0  0  0
 21 24  1  0  0  0  0
 15 16  1  0  0  0  0
  2 14  2  0  0  0  0
M  END
>  <type>
systematic

$$$$
Cefamandole
  Mrv2401 11032419452D          

 31 34  0  0  1  0            999 V2000
    5.0610    1.7060    0.0000 C   0  0  0  0  0  0  0  0  0  0  0  0
    4.8895    0.8990    0.0000 N   0  0  0  0  0  0  0  0  0  0  0  0
    5.4415    0.2859    0.0000 N   0  0  0  0  0  0  0  0  0  0  0  0
    5.0290   -0.4285    0.0000 N   0  0  0  0  0  0  0  0  0  0  0  0
    4.2221   -0.2570    0.0000 N   0  0  0  0  0  0  0  0  0  0  0  0
    4.1358    0.5635    0.0000 C   0  0  0  0  0  0  0  0  0  0  0  0
    3.4214    0.9760    0.0000 S   0  0  0  0  0  0  0  0  0  0  0  0
    2.7069    0.5635    0.0000 C   0  0  0  0  0  0  0  0  0  0  0  0
    1.9924    0.9760    0.0000 C   0  0  0  0  0  0  0  0  0  0  0  0
    1.2780    0.5635    0.0000 C   0  0  0  0  0  0  0  0  0  0  0  0
    0.5635    0.9760    0.0000 N   0  0  0  0  0  0  0  0  0  0  0  0
    0.5635    1.8010    0.0000 C   0  0  2  0  0  0  0  0  0  0  0  0
    1.2780    2.2135    0.0000 S   0  0  0  0  0  0  0  0  0  0  0  0
    1.9924    1.8010    0.0000 C   0  0  0  0  0  0  0  0  0  0  0  0
   -0.2615    1.8010    0.0000 C   0  0  2  0  0  0  0  0  0  0  0  0
   -0.8449    2.3843    0.0000 N   0  0  0  0  0  0  0  0  0  0  0  0
   -0.6314    3.1812    0.0000 C   0  0  0  0  0  0  0  0  0  0  0  0
    0.1655    3.3948    0.0000 O   0  0  0  0  0  0  0  0  0  0  0  0
   -1.2147    3.7646    0.0000 C   0  0  2  0  0  0  0  0  0  0  0  0
   -1.0012    4.5615    0.0000 O   0  0  0  0  0  0  0  0  0  0  0  0
   -2.0116    3.5511    0.0000 C   0  0  0  0  0  0  0  0  0  0  0  0
   -2.2251    2.7542    0.0000 C   0  0  0  0  0  0  0  0  0  0  0  0
   -3.0220    2.5407    0.0000 C   0  0  0  0  0  0  0  0  0  0  0  0
   -3.6054    3.1240    0.0000 C   0  0  0  0  0  0  0  0  0  0  0  0
   -3.3919    3.9209    0.0000 C   0  0  0  0  0  0  0  0  0  0  0  0
   -2.5950    4.1344    0.0000 C   0  0  0  0  0  0  0  0  0  0  0  0
   -0.2615    0.9760    0.0000 C   0  0  0  0  0  0  0  0  0  0  0  0
   -0.8449    0.3926    0.0000 O   0  0  0  0  0  0  0  0  0  0  0  0
    1.2780   -0.2615    0.0000 C   0  0  0  0  0  0  0  0  0  0  0  0
    0.5635   -0.6740    0.0000 O   0  0  0  0  0  0  0  0  0  0  0  0
    1.9924   -0.6740    0.0000 O   0  0  0  0  0  0  0  0  0  0  0  0
  1  2  1  0  0  0  0
  2  3  1  0  0  0  0
  3  4  2  0  0  0  0
  4  5  1  0  0  0  0
  5  6  2  0  0  0  0
  2  6  1  0  0  0  0
  6  7  1  0  0  0  0
  7  8  1  0  0  0  0
  8  9  1  0  0  0  0
  9 10  2  0  0  0  0
 10 11  1  0  0  0  0
 12 11  1  1  0  0  0
 12 13  1  0  0  0  0
 13 14  1  0  0  0  0
  9 14  1  0  0  0  0
 12 15  1  0  0  0  0
 15 16  1  1  0  0  0
 16 17  1  0  0  0  0
 17 18  2  0  0  0  0
 19 17  1  0  0  0  0
 19 20  1  1  0  0  0
 19 21  1  0  0  0  0
 21 22  2  0  0  0  0
 22 23  1  0  0  0  0
 23 24  2  0  0  0  0
 24 25  1  0  0  0  0
 25 26  2  0  0  0  0
 21 26  1  0  0  0  0
 15 27  1  0  0  0  0
 11 27  1  0  0  0  0
 27 28  2  0  0  0  0
 10 29  1  0  0  0  0
 29 30  1  0  0  0  0
 29 31  2  0  0  0  0
M  END
>  <type>
common

$$$$
5-Thia-1-azabicyclo[4.2.0]oct-2-ene-2-carboxylic acid, 7-[(hydroxyphenylacetyl)amino]-3-[[(1-methyl-1H-tetrazol-5-yl)thio]methyl]-8-oxo-, [6 R-(6α,7β)]-
  Mrv2401 11032419462D          

 31 34  0  0  1  0            999 V2000
    1.6905   -0.1510    0.0000 N   0  0  0  0  0  0  0  0  0  0  0  0
    2.4049    0.2615    0.0000 C   0  0  0  0  0  0  0  0  0  0  0  0
    3.1194   -0.1510    0.0000 C   0  0  0  0  0  0  0  0  0  0  0  0
    3.1194   -0.9760    0.0000 C   0  0  0  0  0  0  0  0  0  0  0  0
    2.4049   -1.3885    0.0000 S   0  0  0  0  0  0  0  0  0  0  0  0
    1.6905   -0.9760    0.0000 C   0  0  2  0  0  0  0  0  0  0  0  0
    0.8655   -0.9760    0.0000 C   0  0  2  0  0  0  0  0  0  0  0  0
    0.8655   -0.1510    0.0000 C   0  0  0  0  0  0  0  0  0  0  0  0
    2.4049    1.0865    0.0000 C   0  0  0  0  0  0  0  0  0  0  0  0
    3.1194    1.4990    0.0000 O   0  0  0  0  0  0  0  0  0  0  0  0
    1.6905    1.4990    0.0000 O   0  0  0  0  0  0  0  0  0  0  0  0
    0.2821    0.4324    0.0000 O   0  0  0  0  0  0  0  0  0  0  0  0
    3.8339    0.2615    0.0000 C   0  0  0  0  0  0  0  0  0  0  0  0
    4.5483   -0.1510    0.0000 S   0  0  0  0  0  0  0  0  0  0  0  0
    5.3490    1.0820    0.0000 N   0  0  0  0  0  0  0  0  0  0  0  0
    6.1560    1.2535    0.0000 N   0  0  0  0  0  0  0  0  0  0  0  0
    6.5685    0.5391    0.0000 N   0  0  0  0  0  0  0  0  0  0  0  0
    6.0165   -0.0740    0.0000 N   0  0  0  0  0  0  0  0  0  0  0  0
    5.2628    0.2615    0.0000 C   0  0  0  0  0  0  0  0  0  0  0  0
    4.7360    1.6340    0.0000 C   0  0  0  0  0  0  0  0  0  0  0  0
    0.2821   -1.5593    0.0000 N   0  0  0  0  0  0  0  0  0  0  0  0
   -0.5148   -1.3458    0.0000 C   0  0  0  0  0  0  0  0  0  0  0  0
   -0.7283   -0.5489    0.0000 O   0  0  0  0  0  0  0  0  0  0  0  0
   -1.0982   -1.9292    0.0000 C   0  0  0  0  0  0  0  0  0  0  0  0
   -1.8950   -1.7157    0.0000 C   0  0  0  0  0  0  0  0  0  0  0  0
   -2.4784   -2.2990    0.0000 C   0  0  0  0  0  0  0  0  0  0  0  0
   -3.2753   -2.0855    0.0000 C   0  0  0  0  0  0  0  0  0  0  0  0
   -3.4888   -1.2886    0.0000 C   0  0  0  0  0  0  0  0  0  0  0  0
   -2.9055   -0.7052    0.0000 C   0  0  0  0  0  0  0  0  0  0  0  0
   -2.1086   -0.9188    0.0000 C   0  0  0  0  0  0  0  0  0  0  0  0
   -0.8846   -2.7261    0.0000 O   0  0  0  0  0  0  0  0  0  0  0  0
  1  2  1  0  0  0  0
  2  3  2  0  0  0  0
  3  4  1  0  0  0  0
  4  5  1  0  0  0  0
  6  5  1  0  0  0  0
  6  1  1  6  0  0  0
  6  7  1  0  0  0  0
  7  8  1  0  0  0  0
  1  8  1  0  0  0  0
  9 10  1  0  0  0  0
  9 11  2  0  0  0  0
  2  9  1  0  0  0  0
  8 12  2  0  0  0  0
 15 16  1  0  0  0  0
 16 17  2  0  0  0  0
 17 18  1  0  0  0  0
 18 19  2  0  0  0  0
 15 19  1  0  0  0  0
 15 20  1  0  0  0  0
 14 19  1  0  0  0  0
 13 14  1  0  0  0  0
  3 13  1  0  0  0  0
 22 23  2  0  0  0  0
 22 24  1  0  0  0  0
 25 26  2  0  0  0  0
 26 27  1  0  0  0  0
 27 28  2  0  0  0  0
 28 29  1  0  0  0  0
 29 30  2  0  0  0  0
 25 30  1  0  0  0  0
 24 25  1  0  0  0  0
 24 31  1  0  0  0  0
 21 22  1  0  0  0  0
  7 21  1  1  0  0  0
M  END
>  <type>
systematic

$$$$
5-Thia-1-azabicyclo[4.2.0]oct-2-ene-2-carboxylic acid, 3-[[[5-(aminomethyl)-1,3,4-thiadiazol-2-yl]thio]methyl]-7-[(hydroxyphenylacetyl)amino]-8-oxo-, [6 R-[6α,7β(R*)]]-
  Mrv2401 11032419472D          

  0  0  0     0  0            999 V3000
M  V30 BEGIN CTAB
M  V30 COUNTS 32 35 0 0 1
M  V30 BEGIN ATOM
M  V30 1 N 3.1555 -0.2818 0 0
M  V30 2 C 4.4892 0.4882 0 0
M  V30 3 C 5.8229 -0.2818 0 0
M  V30 4 C 5.8229 -1.8218 0 0
M  V30 5 S 4.4892 -2.5918 0 0
M  V30 6 C 3.1555 -1.8218 0 0 CFG=2
M  V30 7 C 1.6155 -1.8218 0 0 CFG=1
M  V30 8 C 1.6155 -0.2818 0 0
M  V30 9 C 4.4892 2.0282 0 0
M  V30 10 O 5.8229 2.7982 0 0
M  V30 11 O 3.1555 2.7982 0 0
M  V30 12 O 0.5266 0.8071 0 0
M  V30 13 N 0.5266 -2.9108 0 0
M  V30 14 C -0.961 -2.5122 0 0
M  V30 15 O -1.3595 -1.0247 0 0
M  V30 16 C -2.0499 -3.6011 0 0
M  V30 17 C -3.5374 -3.2026 0 0
M  V30 18 C -4.6264 -4.2915 0 0
M  V30 19 C -6.1139 -3.8929 0 0
M  V30 20 C -6.5125 -2.4054 0 0
M  V30 21 C -5.4235 -1.3165 0 0
M  V30 22 C -3.936 -1.715 0 0
M  V30 23 O -1.6513 -5.0887 0 0
M  V30 24 C 7.1566 0.4882 0 0
M  V30 25 S 8.4902 -0.2818 0 0
M  V30 26 S 11.2308 -0.1382 0 0
M  V30 27 C 9.8239 0.4882 0 0
M  V30 28 N 9.9849 2.0197 0 0
M  V30 29 N 11.4912 2.3399 0 0
M  V30 30 C 12.2612 1.0062 0 0
M  V30 31 C 13.7928 0.8453 0 0
M  V30 32 N 14.698 2.0911 0 0
M  V30 END ATOM
M  V30 BEGIN BOND
M  V30 1 1 1 2
M  V30 2 2 2 3
M  V30 3 1 3 4
M  V30 4 1 4 5
M  V30 5 1 6 5
M  V30 6 1 6 1 CFG=3
M  V30 7 1 6 7
M  V30 8 1 7 8
M  V30 9 1 1 8
M  V30 10 1 9 10
M  V30 11 2 9 11
M  V30 12 1 2 9
M  V30 13 2 8 12
M  V30 14 2 14 15
M  V30 15 1 14 16
M  V30 16 2 17 18
M  V30 17 1 18 19
M  V30 18 2 19 20
M  V30 19 1 20 21
M  V30 20 2 21 22
M  V30 21 1 17 22
M  V30 22 1 16 17
M  V30 23 1 16 23
M  V30 24 1 13 14
M  V30 25 1 7 13 CFG=3
M  V30 26 1 26 27
M  V30 27 2 27 28
M  V30 28 1 28 29
M  V30 29 2 29 30
M  V30 30 1 26 30
M  V30 31 1 31 32
M  V30 32 1 30 31
M  V30 33 1 25 27
M  V30 34 1 24 25
M  V30 35 1 3 24
M  V30 END BOND
M  V30 BEGIN COLLECTION
M  V30 MDLV30/STEREL1 ATOMS=(1 7)
M  V30 END COLLECTION
M  V30 END CTAB
M  END
>  <type>
systematic

$$$$
5-Thia-1-azabicyclo[4.2.0]oct-2-ene-2-carboxylic acid, 7-[[[2-(formylamino)-4-thiazolyl]oxoacetyl]amino]-3-[(methylthio)methyl]-8-oxo-, (6R-trans)-
  Mrv2401 11032419482D          

 28 30  0  0  1  0            999 V2000
    1.6905   -0.1510    0.0000 N   0  0  0  0  0  0  0  0  0  0  0  0
    2.4049    0.2615    0.0000 C   0  0  0  0  0  0  0  0  0  0  0  0
    3.1194   -0.1510    0.0000 C   0  0  0  0  0  0  0  0  0  0  0  0
    3.1194   -0.9760    0.0000 C   0  0  0  0  0  0  0  0  0  0  0  0
    2.4049   -1.3885    0.0000 S   0  0  0  0  0  0  0  0  0  0  0  0
    1.6905   -0.9760    0.0000 C   0  0  2  0  0  0  0  0  0  0  0  0
    0.8655   -0.9760    0.0000 C   0  0  0  0  0  0  0  0  0  0  0  0
    0.8655   -0.1510    0.0000 C   0  0  0  0  0  0  0  0  0  0  0  0
    2.4049    1.0865    0.0000 C   0  0  0  0  0  0  0  0  0  0  0  0
    3.1194    1.4990    0.0000 O   0  0  0  0  0  0  0  0  0  0  0  0
    1.6905    1.4990    0.0000 O   0  0  0  0  0  0  0  0  0  0  0  0
    0.2821    0.4324    0.0000 O   0  0  0  0  0  0  0  0  0  0  0  0
    3.8339    0.2615    0.0000 C   0  0  0  0  0  0  0  0  0  0  0  0
    4.5483   -0.1510    0.0000 S   0  0  0  0  0  0  0  0  0  0  0  0
    5.2628    0.2615    0.0000 C   0  0  0  0  0  0  0  0  0  0  0  0
    0.2821   -1.5593    0.0000 N   0  0  0  0  0  0  0  0  0  0  0  0
    0.4956   -2.3562    0.0000 C   0  0  0  0  0  0  0  0  0  0  0  0
    1.2925   -2.5698    0.0000 O   0  0  0  0  0  0  0  0  0  0  0  0
   -0.0877   -2.9396    0.0000 C   0  0  0  0  0  0  0  0  0  0  0  0
   -0.8846   -2.7261    0.0000 O   0  0  0  0  0  0  0  0  0  0  0  0
    0.8528   -4.8560    0.0000 S   0  0  0  0  0  0  0  0  0  0  0  0
    0.0559   -5.0695    0.0000 C   0  0  0  0  0  0  0  0  0  0  0  0
   -0.3934   -4.3776    0.0000 N   0  0  0  0  0  0  0  0  0  0  0  0
    0.1258   -3.7365    0.0000 C   0  0  0  0  0  0  0  0  0  0  0  0
    0.8960   -4.0321    0.0000 C   0  0  0  0  0  0  0  0  0  0  0  0
   -0.2397   -5.8397    0.0000 N   0  0  0  0  0  0  0  0  0  0  0  0
   -1.0546   -5.9688    0.0000 C   0  0  0  0  0  0  0  0  0  0  0  0
   -1.3502   -6.7390    0.0000 O   0  0  0  0  0  0  0  0  0  0  0  0
  1  2  1  0  0  0  0
  2  3  2  0  0  0  0
  3  4  1  0  0  0  0
  4  5  1  0  0  0  0
  6  5  1  0  0  0  0
  6  1  1  6  0  0  0
  6  7  1  0  0  0  0
  7  8  1  0  0  0  0
  1  8  1  0  0  0  0
  9 10  1  0  0  0  0
  9 11  2  0  0  0  0
  2  9  1  0  0  0  0
  8 12  2  0  0  0  0
 14 15  1  0  0  0  0
 13 14  1  0  0  0  0
  3 13  1  0  0  0  0
 17 18  2  0  0  0  0
 17 19  1  0  0  0  0
 19 20  2  0  0  0  0
 21 22  1  0  0  0  0
 22 23  2  0  0  0  0
 23 24  1  0  0  0  0
 24 25  2  0  0  0  0
 21 25  1  0  0  0  0
 27 28  2  0  0  0  0
 26 27  1  0  0  0  0
 22 26  1  0  0  0  0
 19 24  1  0  0  0  0
 16 17  1  0  0  0  0
  7 16  1  0  0  0  0
M  END
>  <type>
systematic

$$$$
5-Thia-1-azabicyclo[4.2.0]oct-2-ene-2-carboxylic acid, 7-[(hydroxyphenylacetyl)amino]-3-[[(1-methyl-1H-tetrazol-5-yl)thio]methyl]-8-oxo-, [6 R-[6α,7β(S*)]]-
  Mrv2401 11032419482D          

  0  0  0     0  0            999 V3000
M  V30 BEGIN CTAB
M  V30 COUNTS 31 34 0 0 1
M  V30 BEGIN ATOM
M  V30 1 N 3.1555 -0.2818 0 0
M  V30 2 C 4.4892 0.4882 0 0
M  V30 3 C 5.8229 -0.2818 0 0
M  V30 4 C 5.8229 -1.8218 0 0
M  V30 5 S 4.4892 -2.5918 0 0
M  V30 6 C 3.1555 -1.8218 0 0 CFG=2
M  V30 7 C 1.6155 -1.8218 0 0 CFG=2
M  V30 8 C 1.6155 -0.2818 0 0
M  V30 9 C 4.4892 2.0282 0 0
M  V30 10 O 5.8229 2.7982 0 0
M  V30 11 O 3.1555 2.7982 0 0
M  V30 12 O 0.5266 0.8071 0 0
M  V30 13 C 7.1566 0.4882 0 0
M  V30 14 S 8.4902 -0.2818 0 0
M  V30 15 N 9.9849 2.0197 0 0
M  V30 16 N 11.4912 2.3399 0 0
M  V30 17 N 12.2612 1.0062 0 0
M  V30 18 N 11.2308 -0.1382 0 0
M  V30 19 C 9.8239 0.4882 0 0
M  V30 20 C 8.8404 3.0502 0 0
M  V30 21 N 0.5266 -2.9108 0 0
M  V30 22 C -0.961 -2.5122 0 0
M  V30 23 O -1.3595 -1.0247 0 0
M  V30 24 C -2.0499 -3.6011 0 0
M  V30 25 C -3.5374 -3.2026 0 0
M  V30 26 C -4.6264 -4.2915 0 0
M  V30 27 C -6.1139 -3.8929 0 0
M  V30 28 C -6.5125 -2.4054 0 0
M  V30 29 C -5.4235 -1.3165 0 0
M  V30 30 C -3.936 -1.715 0 0
M  V30 31 O -1.6513 -5.0887 0 0
M  V30 END ATOM
M  V30 BEGIN BOND
M  V30 1 1 1 2
M  V30 2 2 2 3
M  V30 3 1 3 4
M  V30 4 1 4 5
M  V30 5 1 6 5
M  V30 6 1 6 1 CFG=3
M  V30 7 1 6 7
M  V30 8 1 7 8
M  V30 9 1 1 8
M  V30 10 1 9 10
M  V30 11 2 9 11
M  V30 12 1 2 9
M  V30 13 2 8 12
M  V30 14 1 15 16
M  V30 15 2 16 17
M  V30 16 1 17 18
M  V30 17 2 18 19
M  V30 18 1 15 19
M  V30 19 1 15 20
M  V30 20 1 14 19
M  V30 21 1 13 14
M  V30 22 1 3 13
M  V30 23 2 22 23
M  V30 24 1 22 24
M  V30 25 2 25 26
M  V30 26 1 26 27
M  V30 27 2 27 28
M  V30 28 1 28 29
M  V30 29 2 29 30
M  V30 30 1 25 30
M  V30 31 1 24 25
M  V30 32 1 24 31
M  V30 33 1 21 22
M  V30 34 1 7 21 CFG=1
M  V30 END BOND
M  V30 BEGIN COLLECTION
M  V30 MDLV30/STEREL1 ATOMS=(1 7)
M  V30 END COLLECTION
M  V30 END CTAB
M  END
>  <type>
systematic

$$$$
5-Thia-1-azabicyclo[4.2.0]oct-2-ene-2-carboxylic acid, 3-[[(4,5-dihydro-5-thioxo-1H-1,2,4-triazol-3-yl)thio]methyl]-7-[(hydroxyphenylacetyl)amino]-8-oxo-, [6 R-(6α,7β)]-
  Mrv2401 11032419492D          

 31 34  0  0  1  0            999 V2000
    1.6905   -0.1510    0.0000 N   0  0  0  0  0  0  0  0  0  0  0  0
    2.4049    0.2615    0.0000 C   0  0  0  0  0  0  0  0  0  0  0  0
    3.1194   -0.1510    0.0000 C   0  0  0  0  0  0  0  0  0  0  0  0
    3.1194   -0.9760    0.0000 C   0  0  0  0  0  0  0  0  0  0  0  0
    2.4049   -1.3885    0.0000 S   0  0  0  0  0  0  0  0  0  0  0  0
    1.6905   -0.9760    0.0000 C   0  0  2  0  0  0  0  0  0  0  0  0
    0.8655   -0.9760    0.0000 C   0  0  2  0  0  0  0  0  0  0  0  0
    0.8655   -0.1510    0.0000 C   0  0  0  0  0  0  0  0  0  0  0  0
    2.4049    1.0865    0.0000 C   0  0  0  0  0  0  0  0  0  0  0  0
    3.1194    1.4990    0.0000 O   0  0  0  0  0  0  0  0  0  0  0  0
    1.6905    1.4990    0.0000 O   0  0  0  0  0  0  0  0  0  0  0  0
    0.2821    0.4324    0.0000 O   0  0  0  0  0  0  0  0  0  0  0  0
    0.2821   -1.5593    0.0000 N   0  0  0  0  0  0  0  0  0  0  0  0
   -0.5148   -1.3458    0.0000 C   0  0  0  0  0  0  0  0  0  0  0  0
   -0.7283   -0.5489    0.0000 O   0  0  0  0  0  0  0  0  0  0  0  0
   -1.0982   -1.9292    0.0000 C   0  0  0  0  0  0  0  0  0  0  0  0
   -1.8950   -1.7157    0.0000 C   0  0  0  0  0  0  0  0  0  0  0  0
   -2.4784   -2.2990    0.0000 C   0  0  0  0  0  0  0  0  0  0  0  0
   -3.2753   -2.0855    0.0000 C   0  0  0  0  0  0  0  0  0  0  0  0
   -3.4888   -1.2886    0.0000 C   0  0  0  0  0  0  0  0  0  0  0  0
   -2.9055   -0.7052    0.0000 C   0  0  0  0  0  0  0  0  0  0  0  0
   -2.1086   -0.9188    0.0000 C   0  0  0  0  0  0  0  0  0  0  0  0
   -0.8846   -2.7261    0.0000 O   0  0  0  0  0  0  0  0  0  0  0  0
    3.8339    0.2615    0.0000 C   0  0  0  0  0  0  0  0  0  0  0  0
    3.8339    1.0865    0.0000 S   0  0  0  0  0  0  0  0  0  0  0  0
    5.8540    1.7766    0.0000 N   0  0  0  0  0  0  0  0  0  0  0  0
    5.3020    1.1635    0.0000 N   0  0  0  0  0  0  0  0  0  0  0  0
    4.5483    1.4990    0.0000 C   0  0  0  0  0  0  0  0  0  0  0  0
    4.6346    2.3195    0.0000 N   0  0  0  0  0  0  0  0  0  0  0  0
    5.4415    2.4910    0.0000 C   0  0  0  0  0  0  0  0  0  0  0  0
    5.7771    3.2447    0.0000 S   0  0  0  0  0  0  0  0  0  0  0  0
  1  2  1  0  0  0  0
  2  3  2  0  0  0  0
  3  4  1  0  0  0  0
  4  5  1  0  0  0  0
  6  5  1  0  0  0  0
  6  1  1  6  0  0  0
  6  7  1  0  0  0  0
  7  8  1  0  0  0  0
  1  8  1  0  0  0  0
  9 10  1  0  0  0  0
  9 11  2  0  0  0  0
  2  9  1  0  0  0  0
  8 12  2  0  0  0  0
 14 15  2  0  0  0  0
 14 16  1  0  0  0  0
 17 18  2  0  0  0  0
 18 19  1  0  0  0  0
 19 20  2  0  0  0  0
 20 21  1  0  0  0  0
 21 22  2  0  0  0  0
 17 22  1  0  0  0  0
 16 17  1  0  0  0  0
 16 23  1  0  0  0  0
 13 14  1  0  0  0  0
  7 13  1  1  0  0  0
 26 27  1  0  0  0  0
 27 28  2  0  0  0  0
 28 29  1  0  0  0  0
 29 30  1  0  0  0  0
 26 30  1  0  0  0  0
 30 31  2  0  0  0  0
 25 28  1  0  0  0  0
 24 25  1  0  0  0  0
  3 24  1  0  0  0  0
M  END
>  <type>
systematic

$$$$
5-Oxa-1-azabicyclo[4.2.0]oct-2-ene-2-carboxylic acid, 7-[[(2R)-hydroxyphenylacetyl]amino]-3-[[(1-methyl-1H-tetrazol-5-yl)thio]methyl]-8-oxo-, (6R,7S)-
  Mrv2401 11032419502D          

 31 34  0  0  1  0            999 V2000
    1.6905   -0.1510    0.0000 N   0  0  0  0  0  0  0  0  0  0  0  0
    2.4049    0.2615    0.0000 C   0  0  0  0  0  0  0  0  0  0  0  0
    3.1194   -0.1510    0.0000 C   0  0  0  0  0  0  0  0  0  0  0  0
    3.1194   -0.9760    0.0000 C   0  0  0  0  0  0  0  0  0  0  0  0
    2.4049   -1.3885    0.0000 O   0  0  0  0  0  0  0  0  0  0  0  0
    1.6905   -0.9760    0.0000 C   0  0  2  0  0  0  0  0  0  0  0  0
    0.8655   -0.9760    0.0000 C   0  0  1  0  0  0  0  0  0  0  0  0
    0.8655   -0.1510    0.0000 C   0  0  0  0  0  0  0  0  0  0  0  0
    2.4049    1.0865    0.0000 C   0  0  0  0  0  0  0  0  0  0  0  0
    3.1194    1.4990    0.0000 O   0  0  0  0  0  0  0  0  0  0  0  0
    1.6905    1.4990    0.0000 O   0  0  0  0  0  0  0  0  0  0  0  0
    0.2821    0.4324    0.0000 O   0  0  0  0  0  0  0  0  0  0  0  0
    3.8339    0.2615    0.0000 C   0  0  0  0  0  0  0  0  0  0  0  0
    4.5483   -0.1510    0.0000 S   0  0  0  0  0  0  0  0  0  0  0  0
    5.3490    1.0820    0.0000 N   0  0  0  0  0  0  0  0  0  0  0  0
    6.1560    1.2535    0.0000 N   0  0  0  0  0  0  0  0  0  0  0  0
    6.5685    0.5391    0.0000 N   0  0  0  0  0  0  0  0  0  0  0  0
    6.0165   -0.0740    0.0000 N   0  0  0  0  0  0  0  0  0  0  0  0
    5.2628    0.2615    0.0000 C   0  0  0  0  0  0  0  0  0  0  0  0
    4.7360    1.6340    0.0000 C   0  0  0  0  0  0  0  0  0  0  0  0
    0.2821   -1.5593    0.0000 N   0  0  0  0  0  0  0  0  0  0  0  0
   -0.5148   -1.3458    0.0000 C   0  0  0  0  0  0  0  0  0  0  0  0
   -0.7283   -0.5489    0.0000 O   0  0  0  0  0  0  0  0  0  0  0  0
   -1.0982   -1.9292    0.0000 C   0  0  1  0  0  0  0  0  0  0  0  0
   -1.8950   -1.7157    0.0000 C   0  0  0  0  0  0  0  0  0  0  0  0
   -2.4784   -2.2990    0.0000 C   0  0  0  0  0  0  0  0  0  0  0  0
   -3.2753   -2.0855    0.0000 C   0  0  0  0  0  0  0  0  0  0  0  0
   -3.4888   -1.2886    0.0000 C   0  0  0  0  0  0  0  0  0  0  0  0
   -2.9055   -0.7052    0.0000 C   0  0  0  0  0  0  0  0  0  0  0  0
   -2.1086   -0.9188    0.0000 C   0  0  0  0  0  0  0  0  0  0  0  0
   -0.8846   -2.7261    0.0000 O   0  0  0  0  0  0  0  0  0  0  0  0
  1  2  1  0  0  0  0
  2  3  2  0  0  0  0
  3  4  1  0  0  0  0
  4  5  1  0  0  0  0
  6  5  1  0  0  0  0
  6  1  1  6  0  0  0
  6  7  1  0  0  0  0
  7  8  1  0  0  0  0
  1  8  1  0  0  0  0
  9 10  1  0  0  0  0
  9 11  2  0  0  0  0
  2  9  1  0  0  0  0
  8 12  2  0  0  0  0
 15 16  1  0  0  0  0
 16 17  2  0  0  0  0
 17 18  1  0  0  0  0
 18 19  2  0  0  0  0
 15 19  1  0  0  0  0
 15 20  1  0  0  0  0
 14 19  1  0  0  0  0
 13 14  1  0  0  0  0
  3 13  1  0  0  0  0
 22 23  2  0  0  0  0
 24 22  1  0  0  0  0
 25 26  2  0  0  0  0
 26 27  1  0  0  0  0
 27 28  2  0  0  0  0
 28 29  1  0  0  0  0
 29 30  2  0  0  0  0
 25 30  1  0  0  0  0
 24 25  1  0  0  0  0
 24 31  1  6  0  0  0
 21 22  1  0  0  0  0
  7 21  1  6  0  0  0
M  END
>  <type>
systematic

$$$$
5-Thia-1-azabicyclo[4.2.0]oct-2-ene-2-carboxylic acid, 3-[[(aminocarbonyl)oxy]methyl]-7-methoxy-8-oxo-7-[(oxophenylacetyl)amino]-, (6R-cis)-
  Mrv2401 11032419512D          

 30 32  0  0  1  0            999 V2000
    1.6905   -0.1510    0.0000 N   0  0  0  0  0  0  0  0  0  0  0  0
    2.4049    0.2615    0.0000 C   0  0  0  0  0  0  0  0  0  0  0  0
    3.1194   -0.1510    0.0000 C   0  0  0  0  0  0  0  0  0  0  0  0
    3.1194   -0.9760    0.0000 C   0  0  0  0  0  0  0  0  0  0  0  0
    2.4049   -1.3885    0.0000 S   0  0  0  0  0  0  0  0  0  0  0  0
    1.6905   -0.9760    0.0000 C   0  0  2  0  0  0  0  0  0  0  0  0
    0.8655   -0.9760    0.0000 C   0  0  0  0  0  0  0  0  0  0  0  0
    0.8655   -0.1510    0.0000 C   0  0  0  0  0  0  0  0  0  0  0  0
    2.4049    1.0865    0.0000 C   0  0  0  0  0  0  0  0  0  0  0  0
    3.1194    1.4990    0.0000 O   0  0  0  0  0  0  0  0  0  0  0  0
    1.6905    1.4990    0.0000 O   0  0  0  0  0  0  0  0  0  0  0  0
    0.6729   -1.7782    0.0000 N   0  0  0  0  0  0  0  0  0  0  0  0
   -0.1182   -2.0125    0.0000 C   0  0  0  0  0  0  0  0  0  0  0  0
   -0.7166   -1.4446    0.0000 O   0  0  0  0  0  0  0  0  0  0  0  0
   -0.3108   -2.8147    0.0000 C   0  0  0  0  0  0  0  0  0  0  0  0
   -1.1018   -3.0490    0.0000 C   0  0  0  0  0  0  0  0  0  0  0  0
   -1.2944   -3.8512    0.0000 C   0  0  0  0  0  0  0  0  0  0  0  0
   -2.0854   -4.0855    0.0000 C   0  0  0  0  0  0  0  0  0  0  0  0
   -2.6838   -3.5176    0.0000 C   0  0  0  0  0  0  0  0  0  0  0  0
   -2.4912   -2.7154    0.0000 C   0  0  0  0  0  0  0  0  0  0  0  0
   -1.7002   -2.4811    0.0000 C   0  0  0  0  0  0  0  0  0  0  0  0
    0.2877   -3.3826    0.0000 O   0  0  0  0  0  0  0  0  0  0  0  0
    0.2821    0.4324    0.0000 O   0  0  0  0  0  0  0  0  0  0  0  0
    0.0633   -1.1686    0.0000 O   0  0  0  0  0  0  0  0  0  0  0  0
   -0.5046   -0.5701    0.0000 C   0  0  0  0  0  0  0  0  0  0  0  0
    3.8339    0.2615    0.0000 C   0  0  0  0  0  0  0  0  0  0  0  0
    3.8339    1.0865    0.0000 O   0  0  0  0  0  0  0  0  0  0  0  0
    4.5483    1.4990    0.0000 C   0  0  0  0  0  0  0  0  0  0  0  0
    4.5483    2.3240    0.0000 O   0  0  0  0  0  0  0  0  0  0  0  0
    5.2628    1.0865    0.0000 N   0  0  0  0  0  0  0  0  0  0  0  0
  1  2  1  0  0  0  0
  2  3  2  0  0  0  0
  3  4  1  0  0  0  0
  4  5  1  0  0  0  0
  6  5  1  0  0  0  0
  6  1  1  6  0  0  0
  6  7  1  0  0  0  0
  7  8  1  0  0  0  0
  1  8  1  0  0  0  0
  9 10  1  0  0  0  0
  9 11  2  0  0  0  0
  2  9  1  0  0  0  0
 13 14  2  0  0  0  0
 13 15  1  0  0  0  0
 16 17  2  0  0  0  0
 17 18  1  0  0  0  0
 18 19  2  0  0  0  0
 19 20  1  0  0  0  0
 20 21  2  0  0  0  0
 16 21  1  0  0  0  0
 15 16  1  0  0  0  0
 15 22  2  0  0  0  0
 12 13  1  0  0  0  0
  7 12  1  0  0  0  0
  8 23  2  0  0  0  0
 24 25  1  0  0  0  0
  7 24  1  0  0  0  0
 28 29  2  0  0  0  0
 28 30  1  0  0  0  0
 27 28  1  0  0  0  0
 26 27  1  0  0  0  0
  3 26  1  0  0  0  0
M  END
>  <type>
systematic

$$$$
5-Thia-1-azabicyclo[4.2.0]oct-2-ene-2-carboxylic acid, 7-[(hydroxyphenylacetyl)amino]-3-[[(4-methyl-2-thiazolyl)thio]methyl]-8-oxo-, [6 R-[6α,7β(R*)]]-
  Mrv2401 11032419512D          

  0  0  0     0  0            999 V3000
M  V30 BEGIN CTAB
M  V30 COUNTS 31 34 0 0 1
M  V30 BEGIN ATOM
M  V30 1 N 3.1555 -0.2818 0 0
M  V30 2 C 4.4892 0.4882 0 0
M  V30 3 C 5.8229 -0.2818 0 0
M  V30 4 C 5.8229 -1.8218 0 0
M  V30 5 S 4.4892 -2.5918 0 0
M  V30 6 C 3.1555 -1.8218 0 0 CFG=2
M  V30 7 C 1.6155 -1.8218 0 0 CFG=1
M  V30 8 C 1.6155 -0.2818 0 0
M  V30 9 C 4.4892 2.0282 0 0
M  V30 10 O 5.8229 2.7982 0 0
M  V30 11 O 3.1555 2.7982 0 0
M  V30 12 O 0.5266 0.8071 0 0
M  V30 13 C 7.1566 0.4882 0 0
M  V30 14 S 8.4902 -0.2818 0 0
M  V30 15 S 11.2308 -0.1382 0 0
M  V30 16 C 9.8239 0.4882 0 0
M  V30 17 N 9.9849 2.0197 0 0
M  V30 18 C 11.4912 2.3399 0 0
M  V30 19 C 12.2612 1.0062 0 0
M  V30 20 C 12.1176 3.7468 0 0
M  V30 21 N 0.5266 -2.9108 0 0
M  V30 22 C -0.961 -2.5122 0 0
M  V30 23 O -1.3595 -1.0247 0 0
M  V30 24 C -2.0499 -3.6011 0 0
M  V30 25 C -3.5374 -3.2026 0 0
M  V30 26 C -4.6264 -4.2915 0 0
M  V30 27 C -6.1139 -3.8929 0 0
M  V30 28 C -6.5125 -2.4054 0 0
M  V30 29 C -5.4235 -1.3165 0 0
M  V30 30 C -3.936 -1.715 0 0
M  V30 31 O -1.6513 -5.0887 0 0
M  V30 END ATOM
M  V30 BEGIN BOND
M  V30 1 1 1 2
M  V30 2 2 2 3
M  V30 3 1 3 4
M  V30 4 1 4 5
M  V30 5 1 6 5
M  V30 6 1 6 1 CFG=3
M  V30 7 1 6 7
M  V30 8 1 7 8
M  V30 9 1 1 8
M  V30 10 1 9 10
M  V30 11 2 9 11
M  V30 12 1 2 9
M  V30 13 2 8 12
M  V30 14 1 15 16
M  V30 15 2 16 17
M  V30 16 1 17 18
M  V30 17 2 18 19
M  V30 18 1 15 19
M  V30 19 1 18 20
M  V30 20 1 14 16
M  V30 21 1 13 14
M  V30 22 1 3 13
M  V30 23 2 22 23
M  V30 24 1 22 24
M  V30 25 2 25 26
M  V30 26 1 26 27
M  V30 27 2 27 28
M  V30 28 1 28 29
M  V30 29 2 29 30
M  V30 30 1 25 30
M  V30 31 1 24 25
M  V30 32 1 24 31
M  V30 33 1 21 22
M  V30 34 1 7 21 CFG=3
M  V30 END BOND
M  V30 BEGIN COLLECTION
M  V30 MDLV30/STEREL1 ATOMS=(1 7)
M  V30 END COLLECTION
M  V30 END CTAB
M  END
>  <type>
systematic

$$$$
Bicyclo[1.1.1]pentane-1-carboxylic acid, 3-[[2-[5-amino-4-[[(3,4-difluorophenyl)amino]carbonyl]-3-methyl-2-thienyl]-2-oxoacetyl]amino]-
  Mrv2401 11032419522D          

 31 34  0  0  0  0            999 V2000
    0.9644   -7.7476    0.0000 C   0  0  0  0  0  0  0  0  0  0  0  0
    0.3811   -7.1642    0.0000 C   0  0  0  0  0  0  0  0  0  0  0  0
    1.5478   -7.1642    0.0000 C   0  0  0  0  0  0  0  0  0  0  0  0
    0.9644   -6.5808    0.0000 C   0  0  0  0  0  0  0  0  0  0  0  0
    1.1103   -7.1642    0.0000 C   0  0  0  0  0  0  0  0  0  0  0  0
    0.9644   -8.5726    0.0000 C   0  0  0  0  0  0  0  0  0  0  0  0
    0.2500   -8.9851    0.0000 O   0  0  0  0  0  0  0  0  0  0  0  0
    1.6789   -8.9851    0.0000 O   0  0  0  0  0  0  0  0  0  0  0  0
    0.9644   -5.7558    0.0000 N   0  0  0  0  0  0  0  0  0  0  0  0
    1.6789   -5.3433    0.0000 C   0  0  0  0  0  0  0  0  0  0  0  0
    2.3934   -5.7558    0.0000 O   0  0  0  0  0  0  0  0  0  0  0  0
    1.6789   -4.5183    0.0000 C   0  0  0  0  0  0  0  0  0  0  0  0
    0.9644   -4.1058    0.0000 O   0  0  0  0  0  0  0  0  0  0  0  0
    3.1471   -4.4414    0.0000 S   0  0  0  0  0  0  0  0  0  0  0  0
    2.3934   -4.1058    0.0000 C   0  0  0  0  0  0  0  0  0  0  0  0
    2.4796   -3.2853    0.0000 C   0  0  0  0  0  0  0  0  0  0  0  0
    3.2866   -3.1138    0.0000 C   0  0  0  0  0  0  0  0  0  0  0  0
    3.6991   -3.8283    0.0000 C   0  0  0  0  0  0  0  0  0  0  0  0
    1.8665   -2.7333    0.0000 C   0  0  0  0  0  0  0  0  0  0  0  0
    3.6222   -2.3601    0.0000 C   0  0  0  0  0  0  0  0  0  0  0  0
    4.4426   -2.2739    0.0000 O   0  0  0  0  0  0  0  0  0  0  0  0
    3.1372   -1.6927    0.0000 N   0  0  0  0  0  0  0  0  0  0  0  0
    3.4728   -0.9390    0.0000 C   0  0  0  0  0  0  0  0  0  0  0  0
    2.9879   -0.2716    0.0000 C   0  0  0  0  0  0  0  0  0  0  0  0
    3.3234    0.4821    0.0000 C   0  0  0  0  0  0  0  0  0  0  0  0
    4.1439    0.5683    0.0000 C   0  0  0  0  0  0  0  0  0  0  0  0
    4.6288   -0.0991    0.0000 C   0  0  0  0  0  0  0  0  0  0  0  0
    4.2933   -0.8528    0.0000 C   0  0  0  0  0  0  0  0  0  0  0  0
    2.8385    1.1495    0.0000 F   0  0  0  0  0  0  0  0  0  0  0  0
    4.4795    1.3220    0.0000 F   0  0  0  0  0  0  0  0  0  0  0  0
    4.5196   -3.9145    0.0000 N   0  0  0  0  0  0  0  0  0  0  0  0
  1  2  1  0  0  0  0
  1  3  1  0  0  0  0
  3  4  1  0  0  0  0
  2  4  1  0  0  0  0
  4  5  1  0  0  0  0
  1  5  1  0  0  0  0
  6  7  1  0  0  0  0
  6  8  2  0  0  0  0
  1  6  1  0  0  0  0
 10 11  2  0  0  0  0
 10 12  1  0  0  0  0
 12 13  2  0  0  0  0
 14 15  1  0  0  0  0
 15 16  2  0  0  0  0
 16 17  1  0  0  0  0
 17 18  2  0  0  0  0
 14 18  1  0  0  0  0
 16 19  1  0  0  0  0
 20 21  2  0  0  0  0
 23 24  2  0  0  0  0
 24 25  1  0  0  0  0
 25 26  2  0  0  0  0
 26 27  1  0  0  0  0
 27 28  2  0  0  0  0
 23 28  1  0  0  0  0
 25 29  1  0  0  0  0
 26 30  1  0  0  0  0
 22 23  1  0  0  0  0
 20 22  1  0  0  0  0
 17 20  1  0  0  0  0
 18 31  1  0  0  0  0
 12 15  1  0  0  0  0
  9 10  1  0  0  0  0
  4  9  1  0  0  0  0
M  END
>  <type>
systematic

$$$$
5-Thia-1-azabicyclo[4.2.0]oct-2-ene-2-carboxylic acid, 7-[(hydroxyphenylacetyl)amino]-3-[[(4-methyl-4H-1,2,4-triazol-3-yl)thio]methyl]-8-oxo-, [6 R-(6α,7β)]-
  Mrv2401 11032419532D          

 31 34  0  0  1  0            999 V2000
    1.6905   -0.1510    0.0000 N   0  0  0  0  0  0  0  0  0  0  0  0
    2.4049    0.2615    0.0000 C   0  0  0  0  0  0  0  0  0  0  0  0
    3.1194   -0.1510    0.0000 C   0  0  0  0  0  0  0  0  0  0  0  0
    3.1194   -0.9760    0.0000 C   0  0  0  0  0  0  0  0  0  0  0  0
    2.4049   -1.3885    0.0000 S   0  0  0  0  0  0  0  0  0  0  0  0
    1.6905   -0.9760    0.0000 C   0  0  2  0  0  0  0  0  0  0  0  0
    0.8655   -0.9760    0.0000 C   0  0  2  0  0  0  0  0  0  0  0  0
    0.8655   -0.1510    0.0000 C   0  0  0  0  0  0  0  0  0  0  0  0
    2.4049    1.0865    0.0000 C   0  0  0  0  0  0  0  0  0  0  0  0
    3.1194    1.4990    0.0000 O   0  0  0  0  0  0  0  0  0  0  0  0
    1.6905    1.4990    0.0000 O   0  0  0  0  0  0  0  0  0  0  0  0
    0.2821    0.4324    0.0000 O   0  0  0  0  0  0  0  0  0  0  0  0
    3.8339    0.2615    0.0000 C   0  0  0  0  0  0  0  0  0  0  0  0
    4.5483   -0.1510    0.0000 S   0  0  0  0  0  0  0  0  0  0  0  0
    6.5685    0.5391    0.0000 N   0  0  0  0  0  0  0  0  0  0  0  0
    6.0165   -0.0740    0.0000 N   0  0  0  0  0  0  0  0  0  0  0  0
    5.2628    0.2615    0.0000 C   0  0  0  0  0  0  0  0  0  0  0  0
    5.3490    1.0820    0.0000 N   0  0  0  0  0  0  0  0  0  0  0  0
    6.1560    1.2535    0.0000 C   0  0  0  0  0  0  0  0  0  0  0  0
    4.7360    1.6340    0.0000 C   0  0  0  0  0  0  0  0  0  0  0  0
    0.2821   -1.5593    0.0000 N   0  0  0  0  0  0  0  0  0  0  0  0
   -0.5148   -1.3458    0.0000 C   0  0  0  0  0  0  0  0  0  0  0  0
   -0.7283   -0.5489    0.0000 O   0  0  0  0  0  0  0  0  0  0  0  0
   -1.0982   -1.9292    0.0000 C   0  0  0  0  0  0  0  0  0  0  0  0
   -1.8950   -1.7157    0.0000 C   0  0  0  0  0  0  0  0  0  0  0  0
   -2.4784   -2.2990    0.0000 C   0  0  0  0  0  0  0  0  0  0  0  0
   -3.2753   -2.0855    0.0000 C   0  0  0  0  0  0  0  0  0  0  0  0
   -3.4888   -1.2886    0.0000 C   0  0  0  0  0  0  0  0  0  0  0  0
   -2.9055   -0.7052    0.0000 C   0  0  0  0  0  0  0  0  0  0  0  0
   -2.1086   -0.9188    0.0000 C   0  0  0  0  0  0  0  0  0  0  0  0
   -0.8846   -2.7261    0.0000 O   0  0  0  0  0  0  0  0  0  0  0  0
  1  2  1  0  0  0  0
  2  3  2  0  0  0  0
  3  4  1  0  0  0  0
  4  5  1  0  0  0  0
  6  5  1  0  0  0  0
  6  1  1  6  0  0  0
  6  7  1  0  0  0  0
  7  8  1  0  0  0  0
  1  8  1  0  0  0  0
  9 10  1  0  0  0  0
  9 11  2  0  0  0  0
  2  9  1  0  0  0  0
  8 12  2  0  0  0  0
 15 16  1  0  0  0  0
 16 17  2  0  0  0  0
 17 18  1  0  0  0  0
 18 19  1  0  0  0  0
 15 19  2  0  0  0  0
 18 20  1  0  0  0  0
 14 17  1  0  0  0  0
 13 14  1  0  0  0  0
  3 13  1  0  0  0  0
 22 23  2  0  0  0  0
 22 24  1  0  0  0  0
 25 26  2  0  0  0  0
 26 27  1  0  0  0  0
 27 28  2  0  0  0  0
 28 29  1  0  0  0  0
 29 30  2  0  0  0  0
 25 30  1  0  0  0  0
 24 25  1  0  0  0  0
 24 31  1  0  0  0  0
 21 22  1  0  0  0  0
  7 21  1  1  0  0  0
M  END
>  <type>
systematic

$$$$
rel-(6R,7R)-7-[(2-Hydroxy-2-phenylacetyl)amino]-3-[1-[(1-methyl-1H-tetrazol-5-yl)thio]ethyl]-8-oxo-5-thia-1-azabicyclo[4.2.0]oct-2-ene-2-carboxylic acid
  Mrv2401 11032419572D          

  0  0  0     0  0            999 V3000
M  V30 BEGIN CTAB
M  V30 COUNTS 32 35 0 0 1
M  V30 BEGIN ATOM
M  V30 1 N 3.1555 -0.2818 0 0
M  V30 2 C 4.4892 0.4882 0 0
M  V30 3 C 5.8229 -0.2818 0 0
M  V30 4 C 5.8229 -1.8218 0 0
M  V30 5 S 4.4892 -2.5918 0 0
M  V30 6 C 3.1555 -1.8218 0 0 CFG=2
M  V30 7 C 1.6155 -1.8218 0 0 CFG=1
M  V30 8 C 1.6155 -0.2818 0 0
M  V30 9 C 4.4892 2.0282 0 0
M  V30 10 O 5.8229 2.7982 0 0
M  V30 11 O 3.1555 2.7982 0 0
M  V30 12 O 0.5266 0.8071 0 0
M  V30 13 C 7.1566 0.4882 0 0
M  V30 14 C 7.1566 2.0282 0 0
M  V30 15 S 8.4902 -0.2818 0 0
M  V30 16 N 9.9849 2.0197 0 0
M  V30 17 N 11.4912 2.3399 0 0
M  V30 18 N 12.2612 1.0062 0 0
M  V30 19 N 11.2308 -0.1382 0 0
M  V30 20 C 9.8239 0.4882 0 0
M  V30 21 C 8.8404 3.0502 0 0
M  V30 22 N 0.5266 -2.9108 0 0
M  V30 23 C -0.961 -2.5122 0 0
M  V30 24 O -1.3595 -1.0247 0 0
M  V30 25 C -2.0499 -3.6011 0 0
M  V30 26 C -3.5374 -3.2026 0 0
M  V30 27 C -4.6264 -4.2915 0 0
M  V30 28 C -6.1139 -3.8929 0 0
M  V30 29 C -6.5125 -2.4054 0 0
M  V30 30 C -5.4235 -1.3165 0 0
M  V30 31 C -3.936 -1.715 0 0
M  V30 32 O -1.6513 -5.0887 0 0
M  V30 END ATOM
M  V30 BEGIN BOND
M  V30 1 1 1 2
M  V30 2 2 2 3
M  V30 3 1 3 4
M  V30 4 1 4 5
M  V30 5 1 6 5
M  V30 6 1 6 1 CFG=3
M  V30 7 1 6 7
M  V30 8 1 7 8
M  V30 9 1 1 8
M  V30 10 1 9 10
M  V30 11 2 9 11
M  V30 12 1 2 9
M  V30 13 2 8 12
M  V30 14 1 13 14
M  V30 15 1 16 17
M  V30 16 2 17 18
M  V30 17 1 18 19
M  V30 18 2 19 20
M  V30 19 1 16 20
M  V30 20 1 16 21
M  V30 21 1 15 20
M  V30 22 1 13 15
M  V30 23 1 3 13
M  V30 24 2 23 24
M  V30 25 1 23 25
M  V30 26 2 26 27
M  V30 27 1 27 28
M  V30 28 2 28 29
M  V30 29 1 29 30
M  V30 30 2 30 31
M  V30 31 1 26 31
M  V30 32 1 25 26
M  V30 33 1 25 32
M  V30 34 1 22 23
M  V30 35 1 7 22 CFG=3
M  V30 END BOND
M  V30 BEGIN COLLECTION
M  V30 MDLV30/STEREL1 ATOMS=(2 6 7)
M  V30 END COLLECTION
M  V30 END CTAB
M  END
>  <type>
systematic

$$$$

  Mrv2401 11032420022D          

 30 33  0  0  1  0            999 V2000
    1.6905   -0.1510    0.0000 N   0  0  0  0  0  0  0  0  0  0  0  0
    2.4049    0.2615    0.0000 C   0  0  0  0  0  0  0  0  0  0  0  0
    3.1194   -0.1510    0.0000 C   0  0  0  0  0  0  0  0  0  0  0  0
    3.1194   -0.9760    0.0000 C   0  0  0  0  0  0  0  0  0  0  0  0
    2.4049   -1.3885    0.0000 S   0  0  0  0  0  0  0  0  0  0  0  0
    1.6905   -0.9760    0.0000 C   0  0  0  0  0  0  0  0  0  0  0  0
    0.8655   -0.9760    0.0000 C   0  0  2  0  0  0  0  0  0  0  0  0
    0.8655   -0.1510    0.0000 C   0  0  0  0  0  0  0  0  0  0  0  0
    2.4049    1.0865    0.0000 C   0  0  0  0  0  0  0  0  0  0  0  0
    3.1194    1.4990    0.0000 O   0  0  0  0  0  0  0  0  0  0  0  0
    1.6905    1.4990    0.0000 O   0  0  0  0  0  0  0  0  0  0  0  0
    3.8339    0.2615    0.0000 C   0  0  0  0  0  0  0  0  0  0  0  0
    4.5483   -0.1510    0.0000 S   0  0  0  0  0  0  0  0  0  0  0  0
    6.5685    0.5391    0.0000 C   0  0  0  0  0  0  0  0  0  0  0  0
    6.0165   -0.0740    0.0000 S   0  0  0  0  0  0  0  0  0  0  0  0
    5.2628    0.2615    0.0000 C   0  0  0  0  0  0  0  0  0  0  0  0
    5.3490    1.0820    0.0000 N   0  0  0  0  0  0  0  0  0  0  0  0
    6.1560    1.2535    0.0000 N   0  0  0  0  0  0  0  0  0  0  0  0
    0.2821    0.4324    0.0000 O   0  0  0  0  0  0  0  0  0  0  0  0
    0.2821   -1.5593    0.0000 N   0  0  0  0  0  0  0  0  0  0  0  0
   -0.5148   -1.3458    0.0000 C   0  0  0  0  0  0  0  0  0  0  0  0
   -0.7283   -0.5489    0.0000 O   0  0  0  0  0  0  0  0  0  0  0  0
   -1.0982   -1.9292    0.0000 C   0  0  2  0  0  0  0  0  0  0  0  0
   -2.5362   -2.2348    0.0000 O   0  0  0  0  0  0  0  0  0  0  0  0
   -3.2281   -1.7855    0.0000 C   0  0  0  0  0  0  0  0  0  0  0  0
   -3.0146   -0.9886    0.0000 C   0  0  0  0  0  0  0  0  0  0  0  0
   -2.1907   -0.9455    0.0000 C   0  0  0  0  0  0  0  0  0  0  0  0
   -1.8950   -1.7157    0.0000 C   0  0  0  0  0  0  0  0  0  0  0  0
   -0.8846   -2.7261    0.0000 O   0  0  0  0  0  0  0  0  0  0  0  0
    7.3890    0.4528    0.0000 C   0  0  0  0  0  0  0  0  0  0  0  0
  1  2  1  0  0  0  0
  2  3  2  0  0  0  0
  3  4  1  0  0  0  0
  4  5  1  0  0  0  0
  6  5  1  0  0  0  0
  6  1  1  0  0  0  0
  6  7  1  0  0  0  0
  7  8  1  0  0  0  0
  1  8  1  0  0  0  0
  9 10  1  0  0  0  0
  9 11  2  0  0  0  0
  2  9  1  0  0  0  0
 14 15  1  0  0  0  0
 15 16  1  0  0  0  0
 16 17  2  0  0  0  0
 17 18  1  0  0  0  0
 14 18  1  0  0  0  0
 13 16  1  0  0  0  0
 12 13  1  0  0  0  0
  3 12  1  0  0  0  0
  8 19  2  0  0  0  0
 21 22  2  0  0  0  0
 21 23  1  0  0  0  0
 24 25  1  0  0  0  0
 25 26  2  0  0  0  0
 26 27  1  0  0  0  0
 27 28  2  0  0  0  0
 24 28  1  0  0  0  0
 23 28  1  0  0  0  0
 23 29  1  1  0  0  0
 20 21  1  0  0  0  0
  7 20  1  1  0  0  0
 14 30  1  0  0  0  0
M  END
>  <type>
systematic

$$$$

  Mrv2401 11032420042D          

 30 33  0  0  1  0            999 V2000
    1.6905   -0.1510    0.0000 N   0  0  0  0  0  0  0  0  0  0  0  0
    2.4049    0.2615    0.0000 C   0  0  0  0  0  0  0  0  0  0  0  0
    3.1194   -0.1510    0.0000 C   0  0  0  0  0  0  0  0  0  0  0  0
    3.1194   -0.9760    0.0000 C   0  0  0  0  0  0  0  0  0  0  0  0
    2.4049   -1.3885    0.0000 S   0  0  0  0  0  0  0  0  0  0  0  0
    1.6905   -0.9760    0.0000 C   0  0  0  0  0  0  0  0  0  0  0  0
    0.8655   -0.9760    0.0000 C   0  0  2  0  0  0  0  0  0  0  0  0
    0.8655   -0.1510    0.0000 C   0  0  0  0  0  0  0  0  0  0  0  0
    2.4049    1.0865    0.0000 C   0  0  0  0  0  0  0  0  0  0  0  0
    3.1194    1.4990    0.0000 O   0  0  0  0  0  0  0  0  0  0  0  0
    1.6905    1.4990    0.0000 O   0  0  0  0  0  0  0  0  0  0  0  0
    3.8339    0.2615    0.0000 C   0  0  0  0  0  0  0  0  0  0  0  0
    4.5483   -0.1510    0.0000 S   0  0  0  0  0  0  0  0  0  0  0  0
    6.5685    0.5391    0.0000 C   0  0  0  0  0  0  0  0  0  0  0  0
    6.0165   -0.0740    0.0000 S   0  0  0  0  0  0  0  0  0  0  0  0
    5.2628    0.2615    0.0000 C   0  0  0  0  0  0  0  0  0  0  0  0
    5.3490    1.0820    0.0000 N   0  0  0  0  0  0  0  0  0  0  0  0
    6.1560    1.2535    0.0000 N   0  0  0  0  0  0  0  0  0  0  0  0
    0.2821    0.4324    0.0000 O   0  0  0  0  0  0  0  0  0  0  0  0
    0.2821   -1.5593    0.0000 N   0  0  0  0  0  0  0  0  0  0  0  0
   -0.5148   -1.3458    0.0000 C   0  0  0  0  0  0  0  0  0  0  0  0
   -0.7283   -0.5489    0.0000 O   0  0  0  0  0  0  0  0  0  0  0  0
   -1.0982   -1.9292    0.0000 C   0  0  1  0  0  0  0  0  0  0  0  0
   -2.5362   -2.2348    0.0000 O   0  0  0  0  0  0  0  0  0  0  0  0
   -3.2281   -1.7855    0.0000 C   0  0  0  0  0  0  0  0  0  0  0  0
   -3.0146   -0.9886    0.0000 C   0  0  0  0  0  0  0  0  0  0  0  0
   -2.1907   -0.9455    0.0000 C   0  0  0  0  0  0  0  0  0  0  0  0
   -1.8950   -1.7157    0.0000 C   0  0  0  0  0  0  0  0  0  0  0  0
   -0.8846   -2.7261    0.0000 O   0  0  0  0  0  0  0  0  0  0  0  0
    7.3890    0.4528    0.0000 C   0  0  0  0  0  0  0  0  0  0  0  0
  1  2  1  0  0  0  0
  2  3  2  0  0  0  0
  3  4  1  0  0  0  0
  4  5  1  0  0  0  0
  6  5  1  0  0  0  0
  6  1  1  0  0  0  0
  6  7  1  0  0  0  0
  7  8  1  0  0  0  0
  1  8  1  0  0  0  0
  9 10  1  0  0  0  0
  9 11  2  0  0  0  0
  2  9  1  0  0  0  0
 14 15  1  0  0  0  0
 15 16  1  0  0  0  0
 16 17  2  0  0  0  0
 17 18  1  0  0  0  0
 14 18  1  0  0  0  0
 13 16  1  0  0  0  0
 12 13  1  0  0  0  0
  3 12  1  0  0  0  0
  8 19  2  0  0  0  0
 21 22  2  0  0  0  0
 21 23  1  0  0  0  0
 24 25  1  0  0  0  0
 25 26  2  0  0  0  0
 26 27  1  0  0  0  0
 27 28  2  0  0  0  0
 24 28  1  0  0  0  0
 23 28  1  0  0  0  0
 23 29  1  6  0  0  0
 20 21  1  0  0  0  0
  7 20  1  1  0  0  0
 14 30  1  0  0  0  0
M  END
>  <type>
systematic

$$$$
5-Thia-1-azabicyclo[4.2.0]oct-2-ene-2-carboxylic acid, 7-[(hydroxy-5-isothiazolylacetyl)amino]-8-oxo-3-[(1H-1,2,4-triazol-3-ylthio)methyl]-, [6 R-(6α,7β)]-
  Mrv2401 11032420002D          

 29 32  0  0  1  0            999 V2000
    1.6905   -0.1510    0.0000 N   0  0  0  0  0  0  0  0  0  0  0  0
    2.4049    0.2615    0.0000 C   0  0  0  0  0  0  0  0  0  0  0  0
    3.1194   -0.1510    0.0000 C   0  0  0  0  0  0  0  0  0  0  0  0
    3.1194   -0.9760    0.0000 C   0  0  0  0  0  0  0  0  0  0  0  0
    2.4049   -1.3885    0.0000 S   0  0  0  0  0  0  0  0  0  0  0  0
    1.6905   -0.9760    0.0000 C   0  0  2  0  0  0  0  0  0  0  0  0
    0.8655   -0.9760    0.0000 C   0  0  2  0  0  0  0  0  0  0  0  0
    0.8655   -0.1510    0.0000 C   0  0  0  0  0  0  0  0  0  0  0  0
    2.4049    1.0865    0.0000 C   0  0  0  0  0  0  0  0  0  0  0  0
    3.1194    1.4990    0.0000 O   0  0  0  0  0  0  0  0  0  0  0  0
    1.6905    1.4990    0.0000 O   0  0  0  0  0  0  0  0  0  0  0  0
    3.8339    0.2615    0.0000 C   0  0  0  0  0  0  0  0  0  0  0  0
    4.5483   -0.1510    0.0000 S   0  0  0  0  0  0  0  0  0  0  0  0
    6.5685    0.5391    0.0000 N   0  0  0  0  0  0  0  0  0  0  0  0
    6.0165   -0.0740    0.0000 N   0  0  0  0  0  0  0  0  0  0  0  0
    5.2628    0.2615    0.0000 C   0  0  0  0  0  0  0  0  0  0  0  0
    5.3490    1.0820    0.0000 N   0  0  0  0  0  0  0  0  0  0  0  0
    6.1560    1.2535    0.0000 C   0  0  0  0  0  0  0  0  0  0  0  0
    0.2821    0.4324    0.0000 O   0  0  0  0  0  0  0  0  0  0  0  0
    0.2821   -1.5593    0.0000 N   0  0  0  0  0  0  0  0  0  0  0  0
   -0.5148   -1.3458    0.0000 C   0  0  0  0  0  0  0  0  0  0  0  0
   -0.7283   -0.5489    0.0000 O   0  0  0  0  0  0  0  0  0  0  0  0
   -1.0982   -1.9292    0.0000 C   0  0  0  0  0  0  0  0  0  0  0  0
   -2.5362   -2.2348    0.0000 S   0  0  0  0  0  0  0  0  0  0  0  0
   -3.2281   -1.7855    0.0000 N   0  0  0  0  0  0  0  0  0  0  0  0
   -3.0146   -0.9886    0.0000 C   0  0  0  0  0  0  0  0  0  0  0  0
   -2.1907   -0.9455    0.0000 C   0  0  0  0  0  0  0  0  0  0  0  0
   -1.8950   -1.7157    0.0000 C   0  0  0  0  0  0  0  0  0  0  0  0
   -0.8846   -2.7261    0.0000 O   0  0  0  0  0  0  0  0  0  0  0  0
  1  2  1  0  0  0  0
  2  3  2  0  0  0  0
  3  4  1  0  0  0  0
  4  5  1  0  0  0  0
  6  5  1  0  0  0  0
  6  1  1  6  0  0  0
  6  7  1  0  0  0  0
  7  8  1  0  0  0  0
  1  8  1  0  0  0  0
  9 10  1  0  0  0  0
  9 11  2  0  0  0  0
  2  9  1  0  0  0  0
 14 15  1  0  0  0  0
 15 16  2  0  0  0  0
 16 17  1  0  0  0  0
 17 18  2  0  0  0  0
 14 18  1  0  0  0  0
 13 16  1  0  0  0  0
 12 13  1  0  0  0  0
  3 12  1  0  0  0  0
  8 19  2  0  0  0  0
 21 22  2  0  0  0  0
 21 23  1  0  0  0  0
 24 25  1  0  0  0  0
 25 26  2  0  0  0  0
 26 27  1  0  0  0  0
 27 28  2  0  0  0  0
 24 28  1  0  0  0  0
 23 28  1  0  0  0  0
 23 29  1  0  0  0  0
 20 21  1  0  0  0  0
  7 20  1  1  0  0  0
M  END
>  <type>
systematic

$$$$
Bicyclo[1.1.1]pentane-1-carboxylic acid, 3-[[2-[5-amino-4-[[(3-cyano-4-fluorophenyl)amino]carbonyl]-3-methyl-2-thienyl]-2-oxoacetyl]amino]-
  Mrv2401 11032420132D          

 32 35  0  0  0  0            999 V2000
    0.9644   -7.7476    0.0000 C   0  0  0  0  0  0  0  0  0  0  0  0
    0.3811   -7.1642    0.0000 C   0  0  0  0  0  0  0  0  0  0  0  0
    1.5478   -7.1642    0.0000 C   0  0  0  0  0  0  0  0  0  0  0  0
    0.9644   -6.5808    0.0000 C   0  0  0  0  0  0  0  0  0  0  0  0
    1.1103   -7.1642    0.0000 C   0  0  0  0  0  0  0  0  0  0  0  0
    0.9644   -8.5726    0.0000 C   0  0  0  0  0  0  0  0  0  0  0  0
    0.2500   -8.9851    0.0000 O   0  0  0  0  0  0  0  0  0  0  0  0
    1.6789   -8.9851    0.0000 O   0  0  0  0  0  0  0  0  0  0  0  0
    0.9644   -5.7558    0.0000 N   0  0  0  0  0  0  0  0  0  0  0  0
    1.6789   -5.3433    0.0000 C   0  0  0  0  0  0  0  0  0  0  0  0
    2.3934   -5.7558    0.0000 O   0  0  0  0  0  0  0  0  0  0  0  0
    1.6789   -4.5183    0.0000 C   0  0  0  0  0  0  0  0  0  0  0  0
    0.9644   -4.1058    0.0000 O   0  0  0  0  0  0  0  0  0  0  0  0
    3.1471   -4.4414    0.0000 S   0  0  0  0  0  0  0  0  0  0  0  0
    2.3934   -4.1058    0.0000 C   0  0  0  0  0  0  0  0  0  0  0  0
    2.4796   -3.2853    0.0000 C   0  0  0  0  0  0  0  0  0  0  0  0
    3.2866   -3.1138    0.0000 C   0  0  0  0  0  0  0  0  0  0  0  0
    3.6991   -3.8283    0.0000 C   0  0  0  0  0  0  0  0  0  0  0  0
    1.8665   -2.7333    0.0000 C   0  0  0  0  0  0  0  0  0  0  0  0
    3.6222   -2.3601    0.0000 C   0  0  0  0  0  0  0  0  0  0  0  0
    4.4426   -2.2739    0.0000 O   0  0  0  0  0  0  0  0  0  0  0  0
    3.1372   -1.6927    0.0000 N   0  0  0  0  0  0  0  0  0  0  0  0
    3.4728   -0.9390    0.0000 C   0  0  0  0  0  0  0  0  0  0  0  0
    2.9879   -0.2716    0.0000 C   0  0  0  0  0  0  0  0  0  0  0  0
    3.3234    0.4821    0.0000 C   0  0  0  0  0  0  0  0  0  0  0  0
    4.1439    0.5683    0.0000 C   0  0  0  0  0  0  0  0  0  0  0  0
    4.6288   -0.0991    0.0000 C   0  0  0  0  0  0  0  0  0  0  0  0
    4.2933   -0.8528    0.0000 C   0  0  0  0  0  0  0  0  0  0  0  0
    4.4795    1.3220    0.0000 F   0  0  0  0  0  0  0  0  0  0  0  0
    2.8385    1.1495    0.0000 C   0  0  0  0  0  0  0  0  0  0  0  0
    2.3536    1.8170    0.0000 N   0  0  0  0  0  0  0  0  0  0  0  0
    4.5196   -3.9145    0.0000 N   0  0  0  0  0  0  0  0  0  0  0  0
  1  2  1  0  0  0  0
  1  3  1  0  0  0  0
  3  4  1  0  0  0  0
  2  4  1  0  0  0  0
  4  5  1  0  0  0  0
  1  5  1  0  0  0  0
  6  7  1  0  0  0  0
  6  8  2  0  0  0  0
  1  6  1  0  0  0  0
 10 11  2  0  0  0  0
 10 12  1  0  0  0  0
 12 13  2  0  0  0  0
 14 15  1  0  0  0  0
 15 16  2  0  0  0  0
 16 17  1  0  0  0  0
 17 18  2  0  0  0  0
 14 18  1  0  0  0  0
 16 19  1  0  0  0  0
 20 21  2  0  0  0  0
 23 24  2  0  0  0  0
 24 25  1  0  0  0  0
 25 26  2  0  0  0  0
 26 27  1  0  0  0  0
 27 28  2  0  0  0  0
 23 28  1  0  0  0  0
 26 29  1  0  0  0  0
 30 31  3  0  0  0  0
 25 30  1  0  0  0  0
 22 23  1  0  0  0  0
 20 22  1  0  0  0  0
 17 20  1  0  0  0  0
 18 32  1  0  0  0  0
 12 15  1  0  0  0  0
  9 10  1  0  0  0  0
  4  9  1  0  0  0  0
M  END
>  <type>
systematic

$$$$
5-Thia-1-azabicyclo[4.2.0]oct-2-ene-2-carboxylic acid, 7-[(hydroxyphenylacetyl)amino]-8-oxo-3-[[(2,3,4,5-tetrahydro-3,5-dioxo-1,2,4-triazin-6-yl)thio]methyl]-, [6 R-(6α,7β)]-
  Mrv2401 11032420132D          

 33 36  0  0  1  0            999 V2000
    1.6905   -0.1510    0.0000 N   0  0  0  0  0  0  0  0  0  0  0  0
    2.4049    0.2615    0.0000 C   0  0  0  0  0  0  0  0  0  0  0  0
    3.1194   -0.1510    0.0000 C   0  0  0  0  0  0  0  0  0  0  0  0
    3.1194   -0.9760    0.0000 C   0  0  0  0  0  0  0  0  0  0  0  0
    2.4049   -1.3885    0.0000 S   0  0  0  0  0  0  0  0  0  0  0  0
    1.6905   -0.9760    0.0000 C   0  0  2  0  0  0  0  0  0  0  0  0
    0.8655   -0.9760    0.0000 C   0  0  2  0  0  0  0  0  0  0  0  0
    0.8655   -0.1510    0.0000 C   0  0  0  0  0  0  0  0  0  0  0  0
    2.4049    1.0865    0.0000 C   0  0  0  0  0  0  0  0  0  0  0  0
    3.1194    1.4990    0.0000 O   0  0  0  0  0  0  0  0  0  0  0  0
    1.6905    1.4990    0.0000 O   0  0  0  0  0  0  0  0  0  0  0  0
    3.8339    0.2615    0.0000 C   0  0  0  0  0  0  0  0  0  0  0  0
    4.5483   -0.1510    0.0000 S   0  0  0  0  0  0  0  0  0  0  0  0
    5.2628    1.0865    0.0000 N   0  0  0  0  0  0  0  0  0  0  0  0
    5.9773    1.4990    0.0000 N   0  0  0  0  0  0  0  0  0  0  0  0
    6.6918    1.0865    0.0000 C   0  0  0  0  0  0  0  0  0  0  0  0
    6.6918    0.2615    0.0000 N   0  0  0  0  0  0  0  0  0  0  0  0
    5.9773   -0.1510    0.0000 C   0  0  0  0  0  0  0  0  0  0  0  0
    5.2628    0.2615    0.0000 C   0  0  0  0  0  0  0  0  0  0  0  0
    7.4062    1.4990    0.0000 O   0  0  0  0  0  0  0  0  0  0  0  0
    5.9773   -0.9760    0.0000 O   0  0  0  0  0  0  0  0  0  0  0  0
    0.2821    0.4324    0.0000 O   0  0  0  0  0  0  0  0  0  0  0  0
    0.2821   -1.5593    0.0000 N   0  0  0  0  0  0  0  0  0  0  0  0
   -0.5148   -1.3458    0.0000 C   0  0  0  0  0  0  0  0  0  0  0  0
   -0.7283   -0.5489    0.0000 O   0  0  0  0  0  0  0  0  0  0  0  0
   -1.0982   -1.9292    0.0000 C   0  0  0  0  0  0  0  0  0  0  0  0
   -1.8950   -1.7157    0.0000 C   0  0  0  0  0  0  0  0  0  0  0  0
   -2.4784   -2.2990    0.0000 C   0  0  0  0  0  0  0  0  0  0  0  0
   -3.2753   -2.0855    0.0000 C   0  0  0  0  0  0  0  0  0  0  0  0
   -3.4888   -1.2886    0.0000 C   0  0  0  0  0  0  0  0  0  0  0  0
   -2.9055   -0.7052    0.0000 C   0  0  0  0  0  0  0  0  0  0  0  0
   -2.1086   -0.9188    0.0000 C   0  0  0  0  0  0  0  0  0  0  0  0
   -0.8846   -2.7261    0.0000 O   0  0  0  0  0  0  0  0  0  0  0  0
  1  2  1  0  0  0  0
  2  3  2  0  0  0  0
  3  4  1  0  0  0  0
  4  5  1  0  0  0  0
  6  5  1  0  0  0  0
  6  1  1  6  0  0  0
  6  7  1  0  0  0  0
  7  8  1  0  0  0  0
  1  8  1  0  0  0  0
  9 10  1  0  0  0  0
  9 11  2  0  0  0  0
  2  9  1  0  0  0  0
 14 15  1  0  0  0  0
 15 16  1  0  0  0  0
 16 17  1  0  0  0  0
 17 18  1  0  0  0  0
 18 19  1  0  0  0  0
 14 19  2  0  0  0  0
 16 20  2  0  0  0  0
 18 21  2  0  0  0  0
 13 19  1  0  0  0  0
 12 13  1  0  0  0  0
  3 12  1  0  0  0  0
  8 22  2  0  0  0  0
 24 25  2  0  0  0  0
 24 26  1  0  0  0  0
 27 28  2  0  0  0  0
 28 29  1  0  0  0  0
 29 30  2  0  0  0  0
 30 31  1  0  0  0  0
 31 32  2  0  0  0  0
 27 32  1  0  0  0  0
 26 27  1  0  0  0  0
 26 33  1  0  0  0  0
 23 24  1  0  0  0  0
  7 23  1  1  0  0  0
M  END
>  <type>
systematic

$$$$
5-Oxa-1-azabicyclo[4.2.0]oct-2-ene-2-carboxylic acid, 7-[(hydroxyphenylacetyl)amino]-3-[[(5-methyl-1,3,4-thiadiazol-2-yl)thio]methyl]-8-oxo-, [6 R-[6α,7β(R*)]]-
  Mrv2401 11032420142D          

  0  0  0     0  0            999 V3000
M  V30 BEGIN CTAB
M  V30 COUNTS 31 34 0 0 1
M  V30 BEGIN ATOM
M  V30 1 N 3.1555 -0.2818 0 0
M  V30 2 C 4.4892 0.4882 0 0
M  V30 3 C 5.8229 -0.2818 0 0
M  V30 4 C 5.8229 -1.8218 0 0
M  V30 5 O 4.4892 -2.5918 0 0
M  V30 6 C 3.1555 -1.8218 0 0 CFG=2
M  V30 7 C 1.6155 -1.8218 0 0 CFG=2
M  V30 8 C 1.6155 -0.2818 0 0
M  V30 9 C 4.4892 2.0282 0 0
M  V30 10 O 5.8229 2.7982 0 0
M  V30 11 O 3.1555 2.7982 0 0
M  V30 12 O 0.5266 0.8071 0 0
M  V30 13 C 7.1566 0.4882 0 0
M  V30 14 S 8.4902 -0.2818 0 0
M  V30 15 S 11.2308 -0.1382 0 0
M  V30 16 C 9.8239 0.4882 0 0
M  V30 17 N 9.9849 2.0197 0 0
M  V30 18 N 11.4912 2.3399 0 0
M  V30 19 C 12.2612 1.0062 0 0
M  V30 20 C 13.7928 0.8453 0 0
M  V30 21 N 0.5266 -2.9108 0 0
M  V30 22 C -0.961 -2.5122 0 0
M  V30 23 O -1.3595 -1.0247 0 0
M  V30 24 C -2.0499 -3.6011 0 0
M  V30 25 C -3.5374 -3.2026 0 0
M  V30 26 C -4.6264 -4.2915 0 0
M  V30 27 C -6.1139 -3.8929 0 0
M  V30 28 C -6.5125 -2.4054 0 0
M  V30 29 C -5.4235 -1.3165 0 0
M  V30 30 C -3.936 -1.715 0 0
M  V30 31 O -1.6513 -5.0887 0 0
M  V30 END ATOM
M  V30 BEGIN BOND
M  V30 1 1 1 2
M  V30 2 2 2 3
M  V30 3 1 3 4
M  V30 4 1 4 5
M  V30 5 1 6 5
M  V30 6 1 6 1 CFG=3
M  V30 7 1 6 7
M  V30 8 1 7 8
M  V30 9 1 1 8
M  V30 10 1 9 10
M  V30 11 2 9 11
M  V30 12 1 2 9
M  V30 13 2 8 12
M  V30 14 1 15 16
M  V30 15 2 16 17
M  V30 16 1 17 18
M  V30 17 2 18 19
M  V30 18 1 15 19
M  V30 19 1 19 20
M  V30 20 1 14 16
M  V30 21 1 13 14
M  V30 22 1 3 13
M  V30 23 2 22 23
M  V30 24 1 22 24
M  V30 25 2 25 26
M  V30 26 1 26 27
M  V30 27 2 27 28
M  V30 28 1 28 29
M  V30 29 2 29 30
M  V30 30 1 25 30
M  V30 31 1 24 25
M  V30 32 1 24 31
M  V30 33 1 21 22
M  V30 34 1 7 21 CFG=1
M  V30 END BOND
M  V30 BEGIN COLLECTION
M  V30 MDLV30/STEREL1 ATOMS=(1 7)
M  V30 END COLLECTION
M  V30 END CTAB
M  END
>  <type>
systematic

$$$$
5-Thia-1-azabicyclo[4.2.0]oct-2-ene-2-carboxylic acid, 3-[[(5-carboxy-1H-1,2,3-triazol-4-yl)thio]methyl]-7-[(hydroxyphenylacetyl)amino]-8-oxo-, [6 R-[6α,7β(R*)]]-
  Mrv2401 11032420152D          

  0  0  0     0  0            999 V3000
M  V30 BEGIN CTAB
M  V30 COUNTS 33 36 0 0 1
M  V30 BEGIN ATOM
M  V30 1 N 3.1555 -0.2818 0 0
M  V30 2 C 4.4892 0.4882 0 0
M  V30 3 C 5.8229 -0.2818 0 0
M  V30 4 C 5.8229 -1.8218 0 0
M  V30 5 S 4.4892 -2.5918 0 0
M  V30 6 C 3.1555 -1.8218 0 0 CFG=2
M  V30 7 C 1.6155 -1.8218 0 0 CFG=1
M  V30 8 C 1.6155 -0.2818 0 0
M  V30 9 C 4.4892 2.0282 0 0
M  V30 10 O 5.8229 2.7982 0 0
M  V30 11 O 3.1555 2.7982 0 0
M  V30 12 O 0.5266 0.8071 0 0
M  V30 13 N 0.5266 -2.9108 0 0
M  V30 14 C -0.961 -2.5122 0 0
M  V30 15 O -1.3595 -1.0247 0 0
M  V30 16 C -2.0499 -3.6011 0 0
M  V30 17 C -3.5374 -3.2026 0 0
M  V30 18 C -4.6264 -4.2915 0 0
M  V30 19 C -6.1139 -3.8929 0 0
M  V30 20 C -6.5125 -2.4054 0 0
M  V30 21 C -5.4235 -1.3165 0 0
M  V30 22 C -3.936 -1.715 0 0
M  V30 23 O -1.6513 -5.0887 0 0
M  V30 24 C 7.1566 0.4882 0 0
M  V30 25 S 7.1566 2.0282 0 0
M  V30 26 N 10.1576 4.6499 0 0
M  V30 27 N 10.9276 3.3162 0 0
M  V30 28 N 9.8971 2.1718 0 0
M  V30 29 C 8.4902 2.7982 0 0
M  V30 30 C 8.6512 4.3297 0 0
M  V30 31 C 7.5068 5.3602 0 0
M  V30 32 O 7.8269 6.8665 0 0
M  V30 33 O 6.0421 4.8843 0 0
M  V30 END ATOM
M  V30 BEGIN BOND
M  V30 1 1 1 2
M  V30 2 2 2 3
M  V30 3 1 3 4
M  V30 4 1 4 5
M  V30 5 1 6 5
M  V30 6 1 6 1 CFG=3
M  V30 7 1 6 7
M  V30 8 1 7 8
M  V30 9 1 1 8
M  V30 10 1 9 10
M  V30 11 2 9 11
M  V30 12 1 2 9
M  V30 13 2 8 12
M  V30 14 2 14 15
M  V30 15 1 14 16
M  V30 16 2 17 18
M  V30 17 1 18 19
M  V30 18 2 19 20
M  V30 19 1 20 21
M  V30 20 2 21 22
M  V30 21 1 17 22
M  V30 22 1 16 17
M  V30 23 1 16 23
M  V30 24 1 13 14
M  V30 25 1 7 13 CFG=3
M  V30 26 1 26 27
M  V30 27 2 27 28
M  V30 28 1 28 29
M  V30 29 2 29 30
M  V30 30 1 26 30
M  V30 31 1 31 32
M  V30 32 2 31 33
M  V30 33 1 30 31
M  V30 34 1 25 29
M  V30 35 1 24 25
M  V30 36 1 3 24
M  V30 END BOND
M  V30 BEGIN COLLECTION
M  V30 MDLV30/STEREL1 ATOMS=(1 7)
M  V30 END COLLECTION
M  V30 END CTAB
M  END
>  <type>
systematic

$$$$
5-Thia-1-azabicyclo[4.2.0]oct-2-ene-2-carboxylic acid, 7-[(hydroxyphenylacetyl)amino]-3-[[(3-methyl-1,2,4-thiadiazol-5-yl)thio]methyl]-8-oxo-, [6 R-[6α,7β(R*)]]-
  Mrv2401 11032420152D          

  0  0  0     0  0            999 V3000
M  V30 BEGIN CTAB
M  V30 COUNTS 31 34 0 0 1
M  V30 BEGIN ATOM
M  V30 1 N 3.1555 -0.2818 0 0
M  V30 2 C 4.4892 0.4882 0 0
M  V30 3 C 5.8229 -0.2818 0 0
M  V30 4 C 5.8229 -1.8218 0 0
M  V30 5 S 4.4892 -2.5918 0 0
M  V30 6 C 3.1555 -1.8218 0 0 CFG=2
M  V30 7 C 1.6155 -1.8218 0 0 CFG=1
M  V30 8 C 1.6155 -0.2818 0 0
M  V30 9 C 4.4892 2.0282 0 0
M  V30 10 O 5.8229 2.7982 0 0
M  V30 11 O 3.1555 2.7982 0 0
M  V30 12 O 0.5266 0.8071 0 0
M  V30 13 C 7.1566 0.4882 0 0
M  V30 14 S 8.4902 -0.2818 0 0
M  V30 15 S 9.9849 2.0197 0 0
M  V30 16 N 11.4912 2.3399 0 0
M  V30 17 C 12.2612 1.0062 0 0
M  V30 18 N 11.2308 -0.1382 0 0
M  V30 19 C 9.8239 0.4882 0 0
M  V30 20 C 13.7928 0.8453 0 0
M  V30 21 N 0.5266 -2.9108 0 0
M  V30 22 C -0.961 -2.5122 0 0
M  V30 23 O -1.3595 -1.0247 0 0
M  V30 24 C -2.0499 -3.6011 0 0
M  V30 25 C -3.5374 -3.2026 0 0
M  V30 26 C -4.6264 -4.2915 0 0
M  V30 27 C -6.1139 -3.8929 0 0
M  V30 28 C -6.5125 -2.4054 0 0
M  V30 29 C -5.4235 -1.3165 0 0
M  V30 30 C -3.936 -1.715 0 0
M  V30 31 O -1.6513 -5.0887 0 0
M  V30 END ATOM
M  V30 BEGIN BOND
M  V30 1 1 1 2
M  V30 2 2 2 3
M  V30 3 1 3 4
M  V30 4 1 4 5
M  V30 5 1 6 5
M  V30 6 1 6 1 CFG=3
M  V30 7 1 6 7
M  V30 8 1 7 8
M  V30 9 1 1 8
M  V30 10 1 9 10
M  V30 11 2 9 11
M  V30 12 1 2 9
M  V30 13 2 8 12
M  V30 14 1 15 16
M  V30 15 2 16 17
M  V30 16 1 17 18
M  V30 17 2 18 19
M  V30 18 1 15 19
M  V30 19 1 17 20
M  V30 20 1 14 19
M  V30 21 1 13 14
M  V30 22 1 3 13
M  V30 23 2 22 23
M  V30 24 1 22 24
M  V30 25 2 25 26
M  V30 26 1 26 27
M  V30 27 2 27 28
M  V30 28 1 28 29
M  V30 29 2 29 30
M  V30 30 1 25 30
M  V30 31 1 24 25
M  V30 32 1 24 31
M  V30 33 1 21 22
M  V30 34 1 7 21 CFG=3
M  V30 END BOND
M  V30 BEGIN COLLECTION
M  V30 MDLV30/STEREL1 ATOMS=(1 7)
M  V30 END COLLECTION
M  V30 END CTAB
M  END
>  <type>
systematic

$$$$
5-Thia-1-azabicyclo[4.2.0]oct-2-ene-2-carboxylic acid, 3-[[[1-(2-hydroxyethyl)-1H-tetrazol-5-yl]thio]methyl]-7-[(hydroxyphenylacetyl)amino]-8-oxo-, [6 R-[6α,7β(R*)]]-
  Mrv2401 11032420162D          

  0  0  0     0  0            999 V3000
M  V30 BEGIN CTAB
M  V30 COUNTS 33 36 0 0 1
M  V30 BEGIN ATOM
M  V30 1 N 3.1555 -0.2818 0 0
M  V30 2 C 4.4892 0.4882 0 0
M  V30 3 C 5.8229 -0.2818 0 0
M  V30 4 C 5.8229 -1.8218 0 0
M  V30 5 S 4.4892 -2.5918 0 0
M  V30 6 C 3.1555 -1.8218 0 0 CFG=2
M  V30 7 C 1.6155 -1.8218 0 0 CFG=1
M  V30 8 C 1.6155 -0.2818 0 0
M  V30 9 C 4.4892 2.0282 0 0
M  V30 10 O 5.8229 2.7982 0 0
M  V30 11 O 3.1555 2.7982 0 0
M  V30 12 O 0.5266 0.8071 0 0
M  V30 13 N 0.5266 -2.9108 0 0
M  V30 14 C -0.961 -2.5122 0 0
M  V30 15 O -1.3595 -1.0247 0 0
M  V30 16 C -2.0499 -3.6011 0 0
M  V30 17 C -3.5374 -3.2026 0 0
M  V30 18 C -4.6264 -4.2915 0 0
M  V30 19 C -6.1139 -3.8929 0 0
M  V30 20 C -6.5125 -2.4054 0 0
M  V30 21 C -5.4235 -1.3165 0 0
M  V30 22 C -3.936 -1.715 0 0
M  V30 23 O -1.6513 -5.0887 0 0
M  V30 24 C 7.1566 0.4882 0 0
M  V30 25 S 7.1566 2.0282 0 0
M  V30 26 N 8.6512 4.3297 0 0
M  V30 27 N 10.1576 4.6499 0 0
M  V30 28 N 10.9276 3.3162 0 0
M  V30 29 N 9.8971 2.1718 0 0
M  V30 30 C 8.4902 2.7982 0 0
M  V30 31 C 7.5068 5.3602 0 0
M  V30 32 C 7.8269 6.8665 0 0
M  V30 33 O 9.2916 7.3424 0 0
M  V30 END ATOM
M  V30 BEGIN BOND
M  V30 1 1 1 2
M  V30 2 2 2 3
M  V30 3 1 3 4
M  V30 4 1 4 5
M  V30 5 1 6 5
M  V30 6 1 6 1 CFG=3
M  V30 7 1 6 7
M  V30 8 1 7 8
M  V30 9 1 1 8
M  V30 10 1 9 10
M  V30 11 2 9 11
M  V30 12 1 2 9
M  V30 13 2 8 12
M  V30 14 2 14 15
M  V30 15 1 14 16
M  V30 16 2 17 18
M  V30 17 1 18 19
M  V30 18 2 19 20
M  V30 19 1 20 21
M  V30 20 2 21 22
M  V30 21 1 17 22
M  V30 22 1 16 17
M  V30 23 1 16 23
M  V30 24 1 13 14
M  V30 25 1 7 13 CFG=3
M  V30 26 1 26 27
M  V30 27 2 27 28
M  V30 28 1 28 29
M  V30 29 2 29 30
M  V30 30 1 26 30
M  V30 31 1 31 32
M  V30 32 1 32 33
M  V30 33 1 26 31
M  V30 34 1 25 30
M  V30 35 1 24 25
M  V30 36 1 3 24
M  V30 END BOND
M  V30 BEGIN COLLECTION
M  V30 MDLV30/STEREL1 ATOMS=(1 7)
M  V30 END COLLECTION
M  V30 END CTAB
M  END
>  <type>
systematic

$$$$
5-Thia-1-azabicyclo[4.2.0]oct-2-ene-2-carboxylic acid, 7-[(hydroxy-5-isothiazolylacetyl)amino]-3-[[(1-methyl-1H-tetrazol-5-yl)thio]methyl]-8-oxo-, [6 R-(6α,7β)]-
  Mrv2401 11032420162D          

 30 33  0  0  1  0            999 V2000
    1.6905   -0.1510    0.0000 N   0  0  0  0  0  0  0  0  0  0  0  0
    2.4049    0.2615    0.0000 C   0  0  0  0  0  0  0  0  0  0  0  0
    3.1194   -0.1510    0.0000 C   0  0  0  0  0  0  0  0  0  0  0  0
    3.1194   -0.9760    0.0000 C   0  0  0  0  0  0  0  0  0  0  0  0
    2.4049   -1.3885    0.0000 S   0  0  0  0  0  0  0  0  0  0  0  0
    1.6905   -0.9760    0.0000 C   0  0  2  0  0  0  0  0  0  0  0  0
    0.8655   -0.9760    0.0000 C   0  0  2  0  0  0  0  0  0  0  0  0
    0.8655   -0.1510    0.0000 C   0  0  0  0  0  0  0  0  0  0  0  0
    2.4049    1.0865    0.0000 C   0  0  0  0  0  0  0  0  0  0  0  0
    3.1194    1.4990    0.0000 O   0  0  0  0  0  0  0  0  0  0  0  0
    1.6905    1.4990    0.0000 O   0  0  0  0  0  0  0  0  0  0  0  0
    0.2821    0.4324    0.0000 O   0  0  0  0  0  0  0  0  0  0  0  0
    3.8339    0.2615    0.0000 C   0  0  0  0  0  0  0  0  0  0  0  0
    4.5483   -0.1510    0.0000 S   0  0  0  0  0  0  0  0  0  0  0  0
    5.3490    1.0820    0.0000 N   0  0  0  0  0  0  0  0  0  0  0  0
    6.1560    1.2535    0.0000 N   0  0  0  0  0  0  0  0  0  0  0  0
    6.5685    0.5391    0.0000 N   0  0  0  0  0  0  0  0  0  0  0  0
    6.0165   -0.0740    0.0000 N   0  0  0  0  0  0  0  0  0  0  0  0
    5.2628    0.2615    0.0000 C   0  0  0  0  0  0  0  0  0  0  0  0
    4.7360    1.6340    0.0000 C   0  0  0  0  0  0  0  0  0  0  0  0
    0.2821   -1.5593    0.0000 N   0  0  0  0  0  0  0  0  0  0  0  0
   -0.5148   -1.3458    0.0000 C   0  0  0  0  0  0  0  0  0  0  0  0
   -0.7283   -0.5489    0.0000 O   0  0  0  0  0  0  0  0  0  0  0  0
   -1.0982   -1.9292    0.0000 C   0  0  0  0  0  0  0  0  0  0  0  0
   -2.5362   -2.2348    0.0000 S   0  0  0  0  0  0  0  0  0  0  0  0
   -3.2281   -1.7855    0.0000 N   0  0  0  0  0  0  0  0  0  0  0  0
   -3.0146   -0.9886    0.0000 C   0  0  0  0  0  0  0  0  0  0  0  0
   -2.1907   -0.9455    0.0000 C   0  0  0  0  0  0  0  0  0  0  0  0
   -1.8950   -1.7157    0.0000 C   0  0  0  0  0  0  0  0  0  0  0  0
   -0.8846   -2.7261    0.0000 O   0  0  0  0  0  0  0  0  0  0  0  0
  1  2  1  0  0  0  0
  2  3  2  0  0  0  0
  3  4  1  0  0  0  0
  4  5  1  0  0  0  0
  6  5  1  0  0  0  0
  6  1  1  6  0  0  0
  6  7  1  0  0  0  0
  7  8  1  0  0  0  0
  1  8  1  0  0  0  0
  9 10  1  0  0  0  0
  9 11  2  0  0  0  0
  2  9  1  0  0  0  0
  8 12  2  0  0  0  0
 15 16  1  0  0  0  0
 16 17  2  0  0  0  0
 17 18  1  0  0  0  0
 18 19  2  0  0  0  0
 15 19  1  0  0  0  0
 15 20  1  0  0  0  0
 14 19  1  0  0  0  0
 13 14  1  0  0  0  0
  3 13  1  0  0  0  0
 22 23  2  0  0  0  0
 22 24  1  0  0  0  0
 25 26  1  0  0  0  0
 26 27  2  0  0  0  0
 27 28  1  0  0  0  0
 28 29  2  0  0  0  0
 25 29  1  0  0  0  0
 24 29  1  0  0  0  0
 24 30  1  0  0  0  0
 21 22  1  0  0  0  0
  7 21  1  1  0  0  0
M  END
>  <type>
systematic

$$$$
5-Thia-1-azabicyclo[4.2.0]oct-2-ene-2-carboxylic acid, 3-[[(4,5-dihydro-5-thioxo-1,3,4-thiadiazol-2-yl)thio]methyl]-7-[(hydroxyphenylacetyl)amino]-8-oxo-, [6 R-(6α,7β)]-
  Mrv2401 11032420172D          

 31 34  0  0  1  0            999 V2000
    1.6905   -0.1510    0.0000 N   0  0  0  0  0  0  0  0  0  0  0  0
    2.4049    0.2615    0.0000 C   0  0  0  0  0  0  0  0  0  0  0  0
    3.1194   -0.1510    0.0000 C   0  0  0  0  0  0  0  0  0  0  0  0
    3.1194   -0.9760    0.0000 C   0  0  0  0  0  0  0  0  0  0  0  0
    2.4049   -1.3885    0.0000 S   0  0  0  0  0  0  0  0  0  0  0  0
    1.6905   -0.9760    0.0000 C   0  0  2  0  0  0  0  0  0  0  0  0
    0.8655   -0.9760    0.0000 C   0  0  2  0  0  0  0  0  0  0  0  0
    0.8655   -0.1510    0.0000 C   0  0  0  0  0  0  0  0  0  0  0  0
    2.4049    1.0865    0.0000 C   0  0  0  0  0  0  0  0  0  0  0  0
    3.1194    1.4990    0.0000 O   0  0  0  0  0  0  0  0  0  0  0  0
    1.6905    1.4990    0.0000 O   0  0  0  0  0  0  0  0  0  0  0  0
    0.2821    0.4324    0.0000 O   0  0  0  0  0  0  0  0  0  0  0  0
    0.2821   -1.5593    0.0000 N   0  0  0  0  0  0  0  0  0  0  0  0
   -0.5148   -1.3458    0.0000 C   0  0  0  0  0  0  0  0  0  0  0  0
   -0.7283   -0.5489    0.0000 O   0  0  0  0  0  0  0  0  0  0  0  0
   -1.0982   -1.9292    0.0000 C   0  0  0  0  0  0  0  0  0  0  0  0
   -1.8950   -1.7157    0.0000 C   0  0  0  0  0  0  0  0  0  0  0  0
   -2.4784   -2.2990    0.0000 C   0  0  0  0  0  0  0  0  0  0  0  0
   -3.2753   -2.0855    0.0000 C   0  0  0  0  0  0  0  0  0  0  0  0
   -3.4888   -1.2886    0.0000 C   0  0  0  0  0  0  0  0  0  0  0  0
   -2.9055   -0.7052    0.0000 C   0  0  0  0  0  0  0  0  0  0  0  0
   -2.1086   -0.9188    0.0000 C   0  0  0  0  0  0  0  0  0  0  0  0
   -0.8846   -2.7261    0.0000 O   0  0  0  0  0  0  0  0  0  0  0  0
    3.8339    0.2615    0.0000 C   0  0  0  0  0  0  0  0  0  0  0  0
    4.5483   -0.1510    0.0000 S   0  0  0  0  0  0  0  0  0  0  0  0
    6.0165   -0.0740    0.0000 S   0  0  0  0  0  0  0  0  0  0  0  0
    5.2628    0.2615    0.0000 C   0  0  0  0  0  0  0  0  0  0  0  0
    5.3490    1.0820    0.0000 N   0  0  0  0  0  0  0  0  0  0  0  0
    6.1560    1.2535    0.0000 N   0  0  0  0  0  0  0  0  0  0  0  0
    6.5685    0.5391    0.0000 C   0  0  0  0  0  0  0  0  0  0  0  0
    7.3890    0.4528    0.0000 S   0  0  0  0  0  0  0  0  0  0  0  0
  1  2  1  0  0  0  0
  2  3  2  0  0  0  0
  3  4  1  0  0  0  0
  4  5  1  0  0  0  0
  6  5  1  0  0  0  0
  6  1  1  6  0  0  0
  6  7  1  0  0  0  0
  7  8  1  0  0  0  0
  1  8  1  0  0  0  0
  9 10  1  0  0  0  0
  9 11  2  0  0  0  0
  2  9  1  0  0  0  0
  8 12  2  0  0  0  0
 14 15  2  0  0  0  0
 14 16  1  0  0  0  0
 17 18  2  0  0  0  0
 18 19  1  0  0  0  0
 19 20  2  0  0  0  0
 20 21  1  0  0  0  0
 21 22  2  0  0  0  0
 17 22  1  0  0  0  0
 16 17  1  0  0  0  0
 16 23  1  0  0  0  0
 13 14  1  0  0  0  0
  7 13  1  1  0  0  0
 26 27  1  0  0  0  0
 27 28  2  0  0  0  0
 28 29  1  0  0  0  0
 29 30  1  0  0  0  0
 26 30  1  0  0  0  0
 30 31  2  0  0  0  0
 25 27  1  0  0  0  0
 24 25  1  0  0  0  0
  3 24  1  0  0  0  0
M  END
>  <type>
systematic

$$$$
5-Thia-1-azabicyclo[4.2.0]oct-2-ene-2-carboxylic acid, 3-[[(2,5-dihydro-5-oxo-1H-1,2,4-triazol-3-yl)thio]methyl]-7-[[hydroxy(4-hydroxyphenyl)acetyl]amino]-8-oxo-,[6 R-(6α,7β)]-
  Mrv2401 11032420212D          

 32 35  0  0  1  0            999 V2000
    1.6905   -0.1510    0.0000 N   0  0  0  0  0  0  0  0  0  0  0  0
    2.4049    0.2615    0.0000 C   0  0  0  0  0  0  0  0  0  0  0  0
    3.1194   -0.1510    0.0000 C   0  0  0  0  0  0  0  0  0  0  0  0
    3.1194   -0.9760    0.0000 C   0  0  0  0  0  0  0  0  0  0  0  0
    2.4049   -1.3885    0.0000 S   0  0  0  0  0  0  0  0  0  0  0  0
    1.6905   -0.9760    0.0000 C   0  0  2  0  0  0  0  0  0  0  0  0
    0.8655   -0.9760    0.0000 C   0  0  2  0  0  0  0  0  0  0  0  0
    0.8655   -0.1510    0.0000 C   0  0  0  0  0  0  0  0  0  0  0  0
    2.4049    1.0865    0.0000 C   0  0  0  0  0  0  0  0  0  0  0  0
    3.1194    1.4990    0.0000 O   0  0  0  0  0  0  0  0  0  0  0  0
    1.6905    1.4990    0.0000 O   0  0  0  0  0  0  0  0  0  0  0  0
    0.2821    0.4324    0.0000 O   0  0  0  0  0  0  0  0  0  0  0  0
    0.2821   -1.5593    0.0000 N   0  0  0  0  0  0  0  0  0  0  0  0
   -0.5148   -1.3458    0.0000 C   0  0  0  0  0  0  0  0  0  0  0  0
   -0.7283   -0.5489    0.0000 O   0  0  0  0  0  0  0  0  0  0  0  0
   -1.0982   -1.9292    0.0000 C   0  0  0  0  0  0  0  0  0  0  0  0
   -1.8950   -1.7157    0.0000 C   0  0  0  0  0  0  0  0  0  0  0  0
   -2.4784   -2.2990    0.0000 C   0  0  0  0  0  0  0  0  0  0  0  0
   -3.2753   -2.0855    0.0000 C   0  0  0  0  0  0  0  0  0  0  0  0
   -3.4888   -1.2886    0.0000 C   0  0  0  0  0  0  0  0  0  0  0  0
   -2.9055   -0.7052    0.0000 C   0  0  0  0  0  0  0  0  0  0  0  0
   -2.1086   -0.9188    0.0000 C   0  0  0  0  0  0  0  0  0  0  0  0
   -4.2857   -1.0751    0.0000 O   0  0  0  0  0  0  0  0  0  0  0  0
   -0.8846   -2.7261    0.0000 O   0  0  0  0  0  0  0  0  0  0  0  0
    3.8339    0.2615    0.0000 C   0  0  0  0  0  0  0  0  0  0  0  0
    3.8339    1.0865    0.0000 S   0  0  0  0  0  0  0  0  0  0  0  0
    5.8540    1.7766    0.0000 N   0  0  0  0  0  0  0  0  0  0  0  0
    5.3020    1.1635    0.0000 N   0  0  0  0  0  0  0  0  0  0  0  0
    4.5483    1.4990    0.0000 C   0  0  0  0  0  0  0  0  0  0  0  0
    4.6346    2.3195    0.0000 N   0  0  0  0  0  0  0  0  0  0  0  0
    5.4415    2.4910    0.0000 C   0  0  0  0  0  0  0  0  0  0  0  0
    5.7771    3.2447    0.0000 O   0  0  0  0  0  0  0  0  0  0  0  0
  1  2  1  0  0  0  0
  2  3  2  0  0  0  0
  3  4  1  0  0  0  0
  4  5  1  0  0  0  0
  6  5  1  0  0  0  0
  6  1  1  6  0  0  0
  6  7  1  0  0  0  0
  7  8  1  0  0  0  0
  1  8  1  0  0  0  0
  9 10  1  0  0  0  0
  9 11  2  0  0  0  0
  2  9  1  0  0  0  0
  8 12  2  0  0  0  0
 14 15  2  0  0  0  0
 14 16  1  0  0  0  0
 17 18  2  0  0  0  0
 18 19  1  0  0  0  0
 19 20  2  0  0  0  0
 20 21  1  0  0  0  0
 21 22  2  0  0  0  0
 17 22  1  0  0  0  0
 20 23  1  0  0  0  0
 16 17  1  0  0  0  0
 16 24  1  0  0  0  0
 13 14  1  0  0  0  0
  7 13  1  1  0  0  0
 27 28  1  0  0  0  0
 28 29  1  0  0  0  0
 29 30  2  0  0  0  0
 30 31  1  0  0  0  0
 27 31  1  0  0  0  0
 31 32  2  0  0  0  0
 26 29  1  0  0  0  0
 25 26  1  0  0  0  0
  3 25  1  0  0  0  0
M  END
>  <type>
systematic

$$$$
5-Thia-1-azabicyclo[4.2.0]oct-2-ene-2-carboxylic acid, 7-[(hydroxy-4-thiazolylacetyl)amino]-3-[[(5-methyl-1,3,4-thiadiazol-2-yl)thio]methyl]-8-oxo-, [6 R-(6α,7β)]-
  Mrv2401 11032420222D          

 30 33  0  0  1  0            999 V2000
    1.6905   -0.1510    0.0000 N   0  0  0  0  0  0  0  0  0  0  0  0
    2.4049    0.2615    0.0000 C   0  0  0  0  0  0  0  0  0  0  0  0
    3.1194   -0.1510    0.0000 C   0  0  0  0  0  0  0  0  0  0  0  0
    3.1194   -0.9760    0.0000 C   0  0  0  0  0  0  0  0  0  0  0  0
    2.4049   -1.3885    0.0000 S   0  0  0  0  0  0  0  0  0  0  0  0
    1.6905   -0.9760    0.0000 C   0  0  2  0  0  0  0  0  0  0  0  0
    0.8655   -0.9760    0.0000 C   0  0  2  0  0  0  0  0  0  0  0  0
    0.8655   -0.1510    0.0000 C   0  0  0  0  0  0  0  0  0  0  0  0
    2.4049    1.0865    0.0000 C   0  0  0  0  0  0  0  0  0  0  0  0
    3.1194    1.4990    0.0000 O   0  0  0  0  0  0  0  0  0  0  0  0
    1.6905    1.4990    0.0000 O   0  0  0  0  0  0  0  0  0  0  0  0
    0.2821    0.4324    0.0000 O   0  0  0  0  0  0  0  0  0  0  0  0
    3.8339    0.2615    0.0000 C   0  0  0  0  0  0  0  0  0  0  0  0
    4.5483   -0.1510    0.0000 S   0  0  0  0  0  0  0  0  0  0  0  0
    6.0165   -0.0740    0.0000 S   0  0  0  0  0  0  0  0  0  0  0  0
    5.2628    0.2615    0.0000 C   0  0  0  0  0  0  0  0  0  0  0  0
    5.3490    1.0820    0.0000 N   0  0  0  0  0  0  0  0  0  0  0  0
    6.1560    1.2535    0.0000 N   0  0  0  0  0  0  0  0  0  0  0  0
    6.5685    0.5391    0.0000 C   0  0  0  0  0  0  0  0  0  0  0  0
    7.3890    0.4528    0.0000 C   0  0  0  0  0  0  0  0  0  0  0  0
    0.2821   -1.5593    0.0000 N   0  0  0  0  0  0  0  0  0  0  0  0
   -0.5148   -1.3458    0.0000 C   0  0  0  0  0  0  0  0  0  0  0  0
   -0.7283   -0.5489    0.0000 O   0  0  0  0  0  0  0  0  0  0  0  0
   -1.0982   -1.9292    0.0000 C   0  0  0  0  0  0  0  0  0  0  0  0
   -3.2281   -1.7855    0.0000 S   0  0  0  0  0  0  0  0  0  0  0  0
   -3.0146   -0.9886    0.0000 C   0  0  0  0  0  0  0  0  0  0  0  0
   -2.1907   -0.9455    0.0000 N   0  0  0  0  0  0  0  0  0  0  0  0
   -1.8950   -1.7157    0.0000 C   0  0  0  0  0  0  0  0  0  0  0  0
   -2.5362   -2.2348    0.0000 C   0  0  0  0  0  0  0  0  0  0  0  0
   -0.8846   -2.7261    0.0000 O   0  0  0  0  0  0  0  0  0  0  0  0
  1  2  1  0  0  0  0
  2  3  2  0  0  0  0
  3  4  1  0  0  0  0
  4  5  1  0  0  0  0
  6  5  1  0  0  0  0
  6  1  1  6  0  0  0
  6  7  1  0  0  0  0
  7  8  1  0  0  0  0
  1  8  1  0  0  0  0
  9 10  1  0  0  0  0
  9 11  2  0  0  0  0
  2  9  1  0  0  0  0
  8 12  2  0  0  0  0
 15 16  1  0  0  0  0
 16 17  2  0  0  0  0
 17 18  1  0  0  0  0
 18 19  2  0  0  0  0
 15 19  1  0  0  0  0
 19 20  1  0  0  0  0
 14 16  1  0  0  0  0
 13 14  1  0  0  0  0
  3 13  1  0  0  0  0
 22 23  2  0  0  0  0
 22 24  1  0  0  0  0
 25 26  1  0  0  0  0
 26 27  2  0  0  0  0
 27 28  1  0  0  0  0
 28 29  2  0  0  0  0
 25 29  1  0  0  0  0
 24 28  1  0  0  0  0
 24 30  1  0  0  0  0
 21 22  1  0  0  0  0
  7 21  1  1  0  0  0
M  END
>  <type>
systematic

$$$$
4-[[2-[4-[[(4-Fluoro-3-methylphenyl)amino]carbonyl]-1,3,5-trimethyl-1H-pyrrol-2-yl]-2-oxoacetyl]amino]tetrahydro-2H-pyran-4-carboxylic acid
  Mrv2401 11032420232D          

 33 35  0  0  0  0            999 V2000
    3.5539    0.7500    0.0000 O   0  0  0  0  0  0  0  0  0  0  0  0
    4.3544    0.5504    0.0000 C   0  0  0  0  0  0  0  0  0  0  0  0
    4.5818   -0.2426    0.0000 C   0  0  0  0  0  0  0  0  0  0  0  0
    4.0087   -0.8361    0.0000 C   0  0  0  0  0  0  0  0  0  0  0  0
    3.2082   -0.6365    0.0000 C   0  0  0  0  0  0  0  0  0  0  0  0
    2.9808    0.1565    0.0000 C   0  0  0  0  0  0  0  0  0  0  0  0
    4.5818   -1.4296    0.0000 C   0  0  0  0  0  0  0  0  0  0  0  0
    4.3544   -2.2226    0.0000 O   0  0  0  0  0  0  0  0  0  0  0  0
    5.3823   -1.2300    0.0000 O   0  0  0  0  0  0  0  0  0  0  0  0
    3.8372   -1.6431    0.0000 N   0  0  0  0  0  0  0  0  0  0  0  0
    3.0525   -1.8980    0.0000 C   0  0  0  0  0  0  0  0  0  0  0  0
    2.4394   -1.3460    0.0000 O   0  0  0  0  0  0  0  0  0  0  0  0
    2.8810   -2.7050    0.0000 C   0  0  0  0  0  0  0  0  0  0  0  0
    3.4941   -3.2570    0.0000 O   0  0  0  0  0  0  0  0  0  0  0  0
    1.4289   -2.4750    0.0000 N   0  0  0  0  0  0  0  0  0  0  0  0
    2.0964   -2.9599    0.0000 C   0  0  0  0  0  0  0  0  0  0  0  0
    1.8414   -3.7445    0.0000 C   0  0  0  0  0  0  0  0  0  0  0  0
    1.0164   -3.7445    0.0000 C   0  0  0  0  0  0  0  0  0  0  0  0
    0.7615   -2.9599    0.0000 C   0  0  0  0  0  0  0  0  0  0  0  0
    1.4289   -1.6500    0.0000 C   0  0  0  0  0  0  0  0  0  0  0  0
    2.3264   -4.4120    0.0000 C   0  0  0  0  0  0  0  0  0  0  0  0
   -0.0231   -2.7050    0.0000 C   0  0  0  0  0  0  0  0  0  0  0  0
    0.5315   -4.4120    0.0000 C   0  0  0  0  0  0  0  0  0  0  0  0
   -0.2890   -4.3257    0.0000 O   0  0  0  0  0  0  0  0  0  0  0  0
    0.8671   -5.1657    0.0000 N   0  0  0  0  0  0  0  0  0  0  0  0
    0.3822   -5.8331    0.0000 C   0  0  0  0  0  0  0  0  0  0  0  0
    0.7177   -6.5868    0.0000 C   0  0  0  0  0  0  0  0  0  0  0  0
    0.2328   -7.2542    0.0000 C   0  0  0  0  0  0  0  0  0  0  0  0
   -0.5877   -7.1680    0.0000 C   0  0  0  0  0  0  0  0  0  0  0  0
   -0.9232   -6.4143    0.0000 C   0  0  0  0  0  0  0  0  0  0  0  0
   -0.4383   -5.7469    0.0000 C   0  0  0  0  0  0  0  0  0  0  0  0
    0.5683   -8.0079    0.0000 C   0  0  0  0  0  0  0  0  0  0  0  0
   -1.0726   -7.8354    0.0000 F   0  0  0  0  0  0  0  0  0  0  0  0
  1  2  1  0  0  0  0
  2  3  1  0  0  0  0
  3  4  1  0  0  0  0
  4  5  1  0  0  0  0
  5  6  1  0  0  0  0
  1  6  1  0  0  0  0
  7  8  1  0  0  0  0
  7  9  2  0  0  0  0
  4  7  1  0  0  0  0
 11 12  2  0  0  0  0
 11 13  1  0  0  0  0
 13 14  2  0  0  0  0
 15 16  1  0  0  0  0
 16 17  2  0  0  0  0
 17 18  1  0  0  0  0
 18 19  2  0  0  0  0
 15 19  1  0  0  0  0
 15 20  1  0  0  0  0
 17 21  1  0  0  0  0
 19 22  1  0  0  0  0
 23 24  2  0  0  0  0
 26 27  2  0  0  0  0
 27 28  1  0  0  0  0
 28 29  2  0  0  0  0
 29 30  1  0  0  0  0
 30 31  2  0  0  0  0
 26 31  1  0  0  0  0
 28 32  1  0  0  0  0
 29 33  1  0  0  0  0
 25 26  1  0  0  0  0
 23 25  1  0  0  0  0
 18 23  1  0  0  0  0
 13 16  1  0  0  0  0
 10 11  1  0  0  0  0
  4 10  1  0  0  0  0
M  END
>  <type>
systematic

$$$$
5-Thia-1-azabicyclo[4.2.0]oct-2-ene-2-carboxylic acid, 8-oxo-7-[(oxo-4-thiazolylacetyl)amino]-3-[(1,2,4-thiadiazol-5-ylthio)methyl]-, (6R-trans)-
  Mrv2401 11032420242D          

 29 32  0  0  1  0            999 V2000
    1.6905   -0.1510    0.0000 N   0  0  0  0  0  0  0  0  0  0  0  0
    2.4049    0.2615    0.0000 C   0  0  0  0  0  0  0  0  0  0  0  0
    3.1194   -0.1510    0.0000 C   0  0  0  0  0  0  0  0  0  0  0  0
    3.1194   -0.9760    0.0000 C   0  0  0  0  0  0  0  0  0  0  0  0
    2.4049   -1.3885    0.0000 S   0  0  0  0  0  0  0  0  0  0  0  0
    1.6905   -0.9760    0.0000 C   0  0  2  0  0  0  0  0  0  0  0  0
    0.8655   -0.9760    0.0000 C   0  0  0  0  0  0  0  0  0  0  0  0
    0.8655   -0.1510    0.0000 C   0  0  0  0  0  0  0  0  0  0  0  0
    2.4049    1.0865    0.0000 C   0  0  0  0  0  0  0  0  0  0  0  0
    3.1194    1.4990    0.0000 O   0  0  0  0  0  0  0  0  0  0  0  0
    1.6905    1.4990    0.0000 O   0  0  0  0  0  0  0  0  0  0  0  0
    3.8339    0.2615    0.0000 C   0  0  0  0  0  0  0  0  0  0  0  0
    4.5483   -0.1510    0.0000 S   0  0  0  0  0  0  0  0  0  0  0  0
    5.3490    1.0820    0.0000 S   0  0  0  0  0  0  0  0  0  0  0  0
    6.1560    1.2535    0.0000 N   0  0  0  0  0  0  0  0  0  0  0  0
    6.5685    0.5391    0.0000 C   0  0  0  0  0  0  0  0  0  0  0  0
    6.0165   -0.0740    0.0000 N   0  0  0  0  0  0  0  0  0  0  0  0
    5.2628    0.2615    0.0000 C   0  0  0  0  0  0  0  0  0  0  0  0
    0.2821   -1.5593    0.0000 N   0  0  0  0  0  0  0  0  0  0  0  0
   -0.5148   -1.3458    0.0000 C   0  0  0  0  0  0  0  0  0  0  0  0
   -0.7283   -0.5489    0.0000 O   0  0  0  0  0  0  0  0  0  0  0  0
   -1.0982   -1.9292    0.0000 C   0  0  0  0  0  0  0  0  0  0  0  0
   -3.2281   -1.7855    0.0000 S   0  0  0  0  0  0  0  0  0  0  0  0
   -3.0146   -0.9886    0.0000 C   0  0  0  0  0  0  0  0  0  0  0  0
   -2.1907   -0.9455    0.0000 N   0  0  0  0  0  0  0  0  0  0  0  0
   -1.8950   -1.7157    0.0000 C   0  0  0  0  0  0  0  0  0  0  0  0
   -2.5362   -2.2348    0.0000 C   0  0  0  0  0  0  0  0  0  0  0  0
   -0.8846   -2.7261    0.0000 O   0  0  0  0  0  0  0  0  0  0  0  0
    0.2821    0.4324    0.0000 O   0  0  0  0  0  0  0  0  0  0  0  0
  1  2  1  0  0  0  0
  2  3  2  0  0  0  0
  3  4  1  0  0  0  0
  4  5  1  0  0  0  0
  6  5  1  0  0  0  0
  6  1  1  6  0  0  0
  6  7  1  0  0  0  0
  7  8  1  0  0  0  0
  1  8  1  0  0  0  0
  9 10  1  0  0  0  0
  9 11  2  0  0  0  0
  2  9  1  0  0  0  0
 14 15  1  0  0  0  0
 15 16  2  0  0  0  0
 16 17  1  0  0  0  0
 17 18  2  0  0  0  0
 14 18  1  0  0  0  0
 13 18  1  0  0  0  0
 12 13  1  0  0  0  0
  3 12  1  0  0  0  0
 20 21  2  0  0  0  0
 20 22  1  0  0  0  0
 23 24  1  0  0  0  0
 24 25  2  0  0  0  0
 25 26  1  0  0  0  0
 26 27  2  0  0  0  0
 23 27  1  0  0  0  0
 22 26  1  0  0  0  0
 22 28  2  0  0  0  0
 19 20  1  0  0  0  0
  7 19  1  0  0  0  0
  8 29  2  0  0  0  0
M  END
>  <type>
systematic

$$$$
5-Thia-1-azabicyclo[4.2.0]oct-2-ene-2-carboxylic acid, 3-[[(1-methyl-1H-tetrazol-5-yl)thio]methyl]-8-oxo-7-[(oxophenylacetyl)amino]-, (6R-trans)-
  Mrv2401 11032420242D          

 31 34  0  0  1  0            999 V2000
    1.6905   -0.1510    0.0000 N   0  0  0  0  0  0  0  0  0  0  0  0
    2.4049    0.2615    0.0000 C   0  0  0  0  0  0  0  0  0  0  0  0
    3.1194   -0.1510    0.0000 C   0  0  0  0  0  0  0  0  0  0  0  0
    3.1194   -0.9760    0.0000 C   0  0  0  0  0  0  0  0  0  0  0  0
    2.4049   -1.3885    0.0000 S   0  0  0  0  0  0  0  0  0  0  0  0
    1.6905   -0.9760    0.0000 C   0  0  2  0  0  0  0  0  0  0  0  0
    0.8655   -0.9760    0.0000 C   0  0  0  0  0  0  0  0  0  0  0  0
    0.8655   -0.1510    0.0000 C   0  0  0  0  0  0  0  0  0  0  0  0
    2.4049    1.0865    0.0000 C   0  0  0  0  0  0  0  0  0  0  0  0
    3.1194    1.4990    0.0000 O   0  0  0  0  0  0  0  0  0  0  0  0
    1.6905    1.4990    0.0000 O   0  0  0  0  0  0  0  0  0  0  0  0
    0.2821   -1.5593    0.0000 N   0  0  0  0  0  0  0  0  0  0  0  0
   -0.5148   -1.3458    0.0000 C   0  0  0  0  0  0  0  0  0  0  0  0
   -0.7283   -0.5489    0.0000 O   0  0  0  0  0  0  0  0  0  0  0  0
   -1.0982   -1.9292    0.0000 C   0  0  0  0  0  0  0  0  0  0  0  0
   -1.8950   -1.7157    0.0000 C   0  0  0  0  0  0  0  0  0  0  0  0
   -2.4784   -2.2990    0.0000 C   0  0  0  0  0  0  0  0  0  0  0  0
   -3.2753   -2.0855    0.0000 C   0  0  0  0  0  0  0  0  0  0  0  0
   -3.4888   -1.2886    0.0000 C   0  0  0  0  0  0  0  0  0  0  0  0
   -2.9055   -0.7052    0.0000 C   0  0  0  0  0  0  0  0  0  0  0  0
   -2.1086   -0.9188    0.0000 C   0  0  0  0  0  0  0  0  0  0  0  0
   -0.8846   -2.7261    0.0000 O   0  0  0  0  0  0  0  0  0  0  0  0
    0.2821    0.4324    0.0000 O   0  0  0  0  0  0  0  0  0  0  0  0
    3.8339    0.2615    0.0000 C   0  0  0  0  0  0  0  0  0  0  0  0
    3.8339    1.0865    0.0000 S   0  0  0  0  0  0  0  0  0  0  0  0
    4.6346    2.3195    0.0000 N   0  0  0  0  0  0  0  0  0  0  0  0
    5.4415    2.4910    0.0000 N   0  0  0  0  0  0  0  0  0  0  0  0
    5.8540    1.7766    0.0000 N   0  0  0  0  0  0  0  0  0  0  0  0
    5.3020    1.1635    0.0000 N   0  0  0  0  0  0  0  0  0  0  0  0
    4.5483    1.4990    0.0000 C   0  0  0  0  0  0  0  0  0  0  0  0
    4.0215    2.8715    0.0000 C   0  0  0  0  0  0  0  0  0  0  0  0
  1  2  1  0  0  0  0
  2  3  2  0  0  0  0
  3  4  1  0  0  0  0
  4  5  1  0  0  0  0
  6  5  1  0  0  0  0
  6  1  1  6  0  0  0
  6  7  1  0  0  0  0
  7  8  1  0  0  0  0
  1  8  1  0  0  0  0
  9 10  1  0  0  0  0
  9 11  2  0  0  0  0
  2  9  1  0  0  0  0
 13 14  2  0  0  0  0
 13 15  1  0  0  0  0
 16 17  2  0  0  0  0
 17 18  1  0  0  0  0
 18 19  2  0  0  0  0
 19 20  1  0  0  0  0
 20 21  2  0  0  0  0
 16 21  1  0  0  0  0
 15 16  1  0  0  0  0
 15 22  2  0  0  0  0
 12 13  1  0  0  0  0
  7 12  1  0  0  0  0
  8 23  2  0  0  0  0
 26 27  1  0  0  0  0
 27 28  2  0  0  0  0
 28 29  1  0  0  0  0
 29 30  2  0  0  0  0
 26 30  1  0  0  0  0
 26 31  1  0  0  0  0
 25 30  1  0  0  0  0
 24 25  1  0  0  0  0
  3 24  1  0  0  0  0
M  END
>  <type>
systematic

$$$$
Bicyclo[1.1.1]pentane-1-carboxylic acid, 3-[[2-[5-amino-3-methyl-4-[[(3,4,5-trifluorophenyl)amino]carbonyl]-2-thienyl]-2-oxoacetyl]amino]-
  Mrv2401 11032420252D          

 32 35  0  0  0  0            999 V2000
    0.9644   -7.7476    0.0000 C   0  0  0  0  0  0  0  0  0  0  0  0
    0.3811   -7.1642    0.0000 C   0  0  0  0  0  0  0  0  0  0  0  0
    1.5478   -7.1642    0.0000 C   0  0  0  0  0  0  0  0  0  0  0  0
    0.9644   -6.5808    0.0000 C   0  0  0  0  0  0  0  0  0  0  0  0
    1.1103   -7.1642    0.0000 C   0  0  0  0  0  0  0  0  0  0  0  0
    0.9644   -8.5726    0.0000 C   0  0  0  0  0  0  0  0  0  0  0  0
    0.2500   -8.9851    0.0000 O   0  0  0  0  0  0  0  0  0  0  0  0
    1.6789   -8.9851    0.0000 O   0  0  0  0  0  0  0  0  0  0  0  0
    0.9644   -5.7558    0.0000 N   0  0  0  0  0  0  0  0  0  0  0  0
    1.6789   -5.3433    0.0000 C   0  0  0  0  0  0  0  0  0  0  0  0
    2.3934   -5.7558    0.0000 O   0  0  0  0  0  0  0  0  0  0  0  0
    1.6789   -4.5183    0.0000 C   0  0  0  0  0  0  0  0  0  0  0  0
    0.9644   -4.1058    0.0000 O   0  0  0  0  0  0  0  0  0  0  0  0
    3.1471   -4.4414    0.0000 S   0  0  0  0  0  0  0  0  0  0  0  0
    2.3934   -4.1058    0.0000 C   0  0  0  0  0  0  0  0  0  0  0  0
    2.4796   -3.2853    0.0000 C   0  0  0  0  0  0  0  0  0  0  0  0
    3.2866   -3.1138    0.0000 C   0  0  0  0  0  0  0  0  0  0  0  0
    3.6991   -3.8283    0.0000 C   0  0  0  0  0  0  0  0  0  0  0  0
    3.6222   -2.3601    0.0000 C   0  0  0  0  0  0  0  0  0  0  0  0
    4.4426   -2.2739    0.0000 O   0  0  0  0  0  0  0  0  0  0  0  0
    3.1372   -1.6927    0.0000 N   0  0  0  0  0  0  0  0  0  0  0  0
    3.4728   -0.9390    0.0000 C   0  0  0  0  0  0  0  0  0  0  0  0
    2.9879   -0.2716    0.0000 C   0  0  0  0  0  0  0  0  0  0  0  0
    3.3234    0.4821    0.0000 C   0  0  0  0  0  0  0  0  0  0  0  0
    4.1439    0.5683    0.0000 C   0  0  0  0  0  0  0  0  0  0  0  0
    4.6288   -0.0991    0.0000 C   0  0  0  0  0  0  0  0  0  0  0  0
    4.2933   -0.8528    0.0000 C   0  0  0  0  0  0  0  0  0  0  0  0
    2.8385    1.1495    0.0000 F   0  0  0  0  0  0  0  0  0  0  0  0
    4.4795    1.3220    0.0000 F   0  0  0  0  0  0  0  0  0  0  0  0
    5.4493   -0.0129    0.0000 F   0  0  0  0  0  0  0  0  0  0  0  0
    1.8665   -2.7333    0.0000 C   0  0  0  0  0  0  0  0  0  0  0  0
    4.5196   -3.9145    0.0000 N   0  0  0  0  0  0  0  0  0  0  0  0
  1  2  1  0  0  0  0
  1  3  1  0  0  0  0
  3  4  1  0  0  0  0
  2  4  1  0  0  0  0
  4  5  1  0  0  0  0
  1  5  1  0  0  0  0
  6  7  1  0  0  0  0
  6  8  2  0  0  0  0
  1  6  1  0  0  0  0
 10 11  2  0  0  0  0
 10 12  1  0  0  0  0
 12 13  2  0  0  0  0
 14 15  1  0  0  0  0
 15 16  2  0  0  0  0
 16 17  1  0  0  0  0
 17 18  2  0  0  0  0
 14 18  1  0  0  0  0
 19 20  2  0  0  0  0
 22 23  2  0  0  0  0
 23 24  1  0  0  0  0
 24 25  2  0  0  0  0
 25 26  1  0  0  0  0
 26 27  2  0  0  0  0
 22 27  1  0  0  0  0
 24 28  1  0  0  0  0
 25 29  1  0  0  0  0
 26 30  1  0  0  0  0
 21 22  1  0  0  0  0
 19 21  1  0  0  0  0
 17 19  1  0  0  0  0
 16 31  1  0  0  0  0
 18 32  1  0  0  0  0
 12 15  1  0  0  0  0
  9 10  1  0  0  0  0
  4  9  1  0  0  0  0
M  END
>  <type>
systematic

$$$$
5-Thia-1-azabicyclo[4.2.0]oct-2-ene-2-carboxylic acid, 3-[[[5-(aminocarbonyl)-1,3,4-oxadiazol-2-yl]thio]methyl]-7-[(hydroxyphenylacetyl)amino]-8-oxo-, [6 R-[6α,7β(R*)]]-
  Mrv2401 11032420262D          

  0  0  0     0  0            999 V3000
M  V30 BEGIN CTAB
M  V30 COUNTS 33 36 0 0 1
M  V30 BEGIN ATOM
M  V30 1 N 3.1555 -0.2818 0 0
M  V30 2 C 4.4892 0.4882 0 0
M  V30 3 C 5.8229 -0.2818 0 0
M  V30 4 C 5.8229 -1.8218 0 0
M  V30 5 S 4.4892 -2.5918 0 0
M  V30 6 C 3.1555 -1.8218 0 0 CFG=2
M  V30 7 C 1.6155 -1.8218 0 0 CFG=1
M  V30 8 C 1.6155 -0.2818 0 0
M  V30 9 C 4.4892 2.0282 0 0
M  V30 10 O 5.8229 2.7982 0 0
M  V30 11 O 3.1555 2.7982 0 0
M  V30 12 O 0.5266 0.8071 0 0
M  V30 13 N 0.5266 -2.9108 0 0
M  V30 14 C -0.961 -2.5122 0 0
M  V30 15 O -1.3595 -1.0247 0 0
M  V30 16 C -2.0499 -3.6011 0 0
M  V30 17 C -3.5374 -3.2026 0 0
M  V30 18 C -4.6264 -4.2915 0 0
M  V30 19 C -6.1139 -3.8929 0 0
M  V30 20 C -6.5125 -2.4054 0 0
M  V30 21 C -5.4235 -1.3165 0 0
M  V30 22 C -3.936 -1.715 0 0
M  V30 23 O -1.6513 -5.0887 0 0
M  V30 24 C 7.1566 0.4882 0 0
M  V30 25 S 8.4902 -0.2818 0 0
M  V30 26 O 11.2308 -0.1382 0 0
M  V30 27 C 9.8239 0.4882 0 0
M  V30 28 N 9.9849 2.0197 0 0
M  V30 29 N 11.4912 2.3399 0 0
M  V30 30 C 12.2612 1.0062 0 0
M  V30 31 C 13.7928 0.8453 0 0
M  V30 32 O 14.698 2.0911 0 0
M  V30 33 N 14.4192 -0.5616 0 0
M  V30 END ATOM
M  V30 BEGIN BOND
M  V30 1 1 1 2
M  V30 2 2 2 3
M  V30 3 1 3 4
M  V30 4 1 4 5
M  V30 5 1 6 5
M  V30 6 1 6 1 CFG=3
M  V30 7 1 6 7
M  V30 8 1 7 8
M  V30 9 1 1 8
M  V30 10 1 9 10
M  V30 11 2 9 11
M  V30 12 1 2 9
M  V30 13 2 8 12
M  V30 14 2 14 15
M  V30 15 1 14 16
M  V30 16 2 17 18
M  V30 17 1 18 19
M  V30 18 2 19 20
M  V30 19 1 20 21
M  V30 20 2 21 22
M  V30 21 1 17 22
M  V30 22 1 16 17
M  V30 23 1 16 23
M  V30 24 1 13 14
M  V30 25 1 7 13 CFG=3
M  V30 26 1 26 27
M  V30 27 2 27 28
M  V30 28 1 28 29
M  V30 29 2 29 30
M  V30 30 1 26 30
M  V30 31 2 31 32
M  V30 32 1 31 33
M  V30 33 1 30 31
M  V30 34 1 25 27
M  V30 35 1 24 25
M  V30 36 1 3 24
M  V30 END BOND
M  V30 BEGIN COLLECTION
M  V30 MDLV30/STEREL1 ATOMS=(1 7)
M  V30 END COLLECTION
M  V30 END CTAB
M  END
>  <type>
systematic

$$$$
5-Thia-1-azabicyclo[4.2.0]oct-2-ene-2-carboxylic acid, 3-[[[5-(aminocarbonyl)-1H-1,2,4-triazol-3-yl]thio]methyl]-7-[(hydroxyphenylacetyl)amino]-8-oxo-, [6 R-[6α,7β(R*)]]-
  Mrv2401 11032420262D          

  0  0  0     0  0            999 V3000
M  V30 BEGIN CTAB
M  V30 COUNTS 33 36 0 0 1
M  V30 BEGIN ATOM
M  V30 1 N 3.1555 -0.2818 0 0
M  V30 2 C 4.4892 0.4882 0 0
M  V30 3 C 5.8229 -0.2818 0 0
M  V30 4 C 5.8229 -1.8218 0 0
M  V30 5 S 4.4892 -2.5918 0 0
M  V30 6 C 3.1555 -1.8218 0 0 CFG=2
M  V30 7 C 1.6155 -1.8218 0 0 CFG=1
M  V30 8 C 1.6155 -0.2818 0 0
M  V30 9 C 4.4892 2.0282 0 0
M  V30 10 O 5.8229 2.7982 0 0
M  V30 11 O 3.1555 2.7982 0 0
M  V30 12 O 0.5266 0.8071 0 0
M  V30 13 N 0.5266 -2.9108 0 0
M  V30 14 C -0.961 -2.5122 0 0
M  V30 15 O -1.3595 -1.0247 0 0
M  V30 16 C -2.0499 -3.6011 0 0
M  V30 17 C -3.5374 -3.2026 0 0
M  V30 18 C -4.6264 -4.2915 0 0
M  V30 19 C -6.1139 -3.8929 0 0
M  V30 20 C -6.5125 -2.4054 0 0
M  V30 21 C -5.4235 -1.3165 0 0
M  V30 22 C -3.936 -1.715 0 0
M  V30 23 O -1.6513 -5.0887 0 0
M  V30 24 C 7.1566 0.4882 0 0
M  V30 25 S 7.1566 2.0282 0 0
M  V30 26 N 10.9276 3.3162 0 0
M  V30 27 N 9.8971 2.1718 0 0
M  V30 28 C 8.4902 2.7982 0 0
M  V30 29 N 8.6512 4.3297 0 0
M  V30 30 C 10.1576 4.6499 0 0
M  V30 31 C 10.7839 6.0568 0 0
M  V30 32 O 12.3155 6.2177 0 0
M  V30 33 N 9.8787 7.3027 0 0
M  V30 END ATOM
M  V30 BEGIN BOND
M  V30 1 1 1 2
M  V30 2 2 2 3
M  V30 3 1 3 4
M  V30 4 1 4 5
M  V30 5 1 6 5
M  V30 6 1 6 1 CFG=3
M  V30 7 1 6 7
M  V30 8 1 7 8
M  V30 9 1 1 8
M  V30 10 1 9 10
M  V30 11 2 9 11
M  V30 12 1 2 9
M  V30 13 2 8 12
M  V30 14 2 14 15
M  V30 15 1 14 16
M  V30 16 2 17 18
M  V30 17 1 18 19
M  V30 18 2 19 20
M  V30 19 1 20 21
M  V30 20 2 21 22
M  V30 21 1 17 22
M  V30 22 1 16 17
M  V30 23 1 16 23
M  V30 24 1 13 14
M  V30 25 1 7 13 CFG=3
M  V30 26 1 26 27
M  V30 27 2 27 28
M  V30 28 1 28 29
M  V30 29 2 29 30
M  V30 30 1 26 30
M  V30 31 2 31 32
M  V30 32 1 31 33
M  V30 33 1 30 31
M  V30 34 1 25 28
M  V30 35 1 24 25
M  V30 36 1 3 24
M  V30 END BOND
M  V30 BEGIN COLLECTION
M  V30 MDLV30/STEREL1 ATOMS=(1 7)
M  V30 END COLLECTION
M  V30 END CTAB
M  END
>  <type>
systematic

$$$$
4-[(6,11-Dihydro-5,11-dimethyl-6-oxo-5H-pyrimido[4,5- b ][1,4]benzodiazepin-2-yl)amino]benzoic acid 2- (3-carboxycyclobutylidene)hydrazide
  Mrv2401 11032420272D          

 36 40  0  0  0  0            999 V2000
   -3.6975    1.2480    0.0000 C   0  0  0  0  0  0  0  0  0  0  0  0
   -4.4859    1.4912    0.0000 C   0  0  0  0  0  0  0  0  0  0  0  0
   -4.6695    2.2955    0.0000 O   0  0  0  0  0  0  0  0  0  0  0  0
   -3.0928    1.8092    0.0000 C   0  0  0  0  0  0  0  0  0  0  0  0
   -2.3044    1.5660    0.0000 C   0  0  0  0  0  0  0  0  0  0  0  0
   -2.1208    0.7617    0.0000 C   0  0  0  0  0  0  0  0  0  0  0  0
   -2.7256    0.2005    0.0000 C   0  0  0  0  0  0  0  0  0  0  0  0
   -3.5140    0.4437    0.0000 C   0  0  0  0  0  0  0  0  0  0  0  0
   -5.8790    1.1732    0.0000 N   0  0  0  0  0  0  0  0  0  0  0  0
   -5.0907    0.9300    0.0000 N   0  0  0  0  0  0  0  0  0  0  0  0
   -6.0626    1.9775    0.0000 C   0  0  0  0  0  0  0  0  0  0  0  0
   -6.7611    2.4165    0.0000 C   0  0  0  0  0  0  0  0  0  0  0  0
   -6.3222    3.1150    0.0000 C   0  0  0  0  0  0  0  0  0  0  0  0
   -5.6237    2.6761    0.0000 C   0  0  0  0  0  0  0  0  0  0  0  0
   -6.5058    3.9193    0.0000 C   0  0  0  0  0  0  0  0  0  0  0  0
   -5.9010    4.4805    0.0000 O   0  0  0  0  0  0  0  0  0  0  0  0
   -7.2941    4.1625    0.0000 O   0  0  0  0  0  0  0  0  0  0  0  0
   -1.3325    0.5185    0.0000 N   0  0  0  0  0  0  0  0  0  0  0  0
    2.1520    1.3976    0.0000 C   0  0  0  0  0  0  0  0  0  0  0  0
    1.4087    1.0397    0.0000 N   0  0  0  0  0  0  0  0  0  0  0  0
    0.9962    2.8469    0.0000 N   0  0  0  0  0  0  0  0  0  0  0  0
    1.8212    2.8469    0.0000 C   0  0  0  0  0  0  0  0  0  0  0  0
    2.3356    2.2019    0.0000 C   0  0  0  0  0  0  0  0  0  0  0  0
    3.1239    2.4451    0.0000 C   0  0  0  0  0  0  0  0  0  0  0  0
    3.7287    1.8840    0.0000 C   0  0  0  0  0  0  0  0  0  0  0  0
    3.5451    1.0796    0.0000 C   0  0  0  0  0  0  0  0  0  0  0  0
    2.7568    0.8365    0.0000 C   0  0  0  0  0  0  0  0  0  0  0  0
    0.4818    2.2019    0.0000 C   0  0  0  0  0  0  0  0  0  0  0  0
    0.6654    1.3976    0.0000 C   0  0  0  0  0  0  0  0  0  0  0  0
    0.0606    0.8365    0.0000 N   0  0  0  0  0  0  0  0  0  0  0  0
   -0.7277    1.0796    0.0000 C   0  0  0  0  0  0  0  0  0  0  0  0
   -0.9113    1.8840    0.0000 N   0  0  0  0  0  0  0  0  0  0  0  0
   -0.3065    2.4451    0.0000 C   0  0  0  0  0  0  0  0  0  0  0  0
    2.1791    3.5902    0.0000 O   0  0  0  0  0  0  0  0  0  0  0  0
    0.6382    3.5902    0.0000 C   0  0  0  0  0  0  0  0  0  0  0  0
    1.4087    0.2147    0.0000 C   0  0  0  0  0  0  0  0  0  0  0  0
  1  2  1  0  0  0  0
  2  3  2  0  0  0  0
  1  4  2  0  0  0  0
  4  5  1  0  0  0  0
  5  6  2  0  0  0  0
  6  7  1  0  0  0  0
  7  8  2  0  0  0  0
  1  8  1  0  0  0  0
  9 10  1  0  0  0  0
 11 12  1  0  0  0  0
 12 13  1  0  0  0  0
 13 14  1  0  0  0  0
 11 14  1  0  0  0  0
 15 16  1  0  0  0  0
 15 17  2  0  0  0  0
 13 15  1  0  0  0  0
  9 11  2  0  0  0  0
  2 10  1  0  0  0  0
 19 20  1  0  0  0  0
 20 29  1  0  0  0  0
 28 21  1  0  0  0  0
 21 22  1  0  0  0  0
 22 23  1  0  0  0  0
 19 23  2  0  0  0  0
 23 24  1  0  0  0  0
 24 25  2  0  0  0  0
 25 26  1  0  0  0  0
 26 27  2  0  0  0  0
 19 27  1  0  0  0  0
 28 29  2  0  0  0  0
 29 30  1  0  0  0  0
 30 31  2  0  0  0  0
 31 32  1  0  0  0  0
 32 33  2  0  0  0  0
 28 33  1  0  0  0  0
 22 34  2  0  0  0  0
 21 35  1  0  0  0  0
 20 36  1  0  0  0  0
 18 31  1  0  0  0  0
  6 18  1  0  0  0  0
M  END
>  <type>
systematic

$$$$

  Mrv2401 11032420332D          

  0  0  0     0  0            999 V3000
M  V30 BEGIN CTAB
M  V30 COUNTS 30 33 0 0 1
M  V30 BEGIN ATOM
M  V30 1 N 3.1555 -0.2818 0 0
M  V30 2 C 4.4892 0.4882 0 0
M  V30 3 C 5.8229 -0.2818 0 0
M  V30 4 C 5.8229 -1.8218 0 0
M  V30 5 S 4.4892 -2.5918 0 0
M  V30 6 C 3.1555 -1.8218 0 0
M  V30 7 C 1.6155 -1.8218 0 0 CFG=1
M  V30 8 C 1.6155 -0.2818 0 0
M  V30 9 C 4.4892 2.0282 0 0
M  V30 10 O 5.8229 2.7982 0 0
M  V30 11 O 3.1555 2.7982 0 0
M  V30 12 C 7.1566 0.4882 0 0
M  V30 13 O 0.5266 0.8071 0 0
M  V30 14 N 0.5266 -2.9108 0 0
M  V30 15 C -0.961 -2.5122 0 0
M  V30 16 O -1.3595 -1.0247 0 0
M  V30 17 C -2.0499 -3.6011 0 0
M  V30 18 C -3.5374 -3.2026 0 0
M  V30 19 O -1.6513 -5.0887 0 0
M  V30 20 N 8.4902 -0.2818 0 0
M  V30 21 C 8.4903 -1.8218 0 0
M  V30 22 C 9.824 -2.5919 0 0
M  V30 23 C 11.1577 -1.8219 0 0
M  V30 24 C 11.1576 -0.2819 0 0
M  V30 25 C 9.8239 0.4881 0 0
M  V30 26 S -4.0893 -1.7649 0 0
M  V30 27 C -5.6271 -1.8455 0 0
M  V30 28 N -6.0257 -3.333 0 0
M  V30 29 C -4.7342 -4.1717 0 0
M  V30 30 N -6.5963 -0.6487 0 0
M  V30 END ATOM
M  V30 BEGIN BOND
M  V30 1 1 1 2
M  V30 2 2 2 3
M  V30 3 1 3 4
M  V30 4 1 4 5
M  V30 5 1 6 5
M  V30 6 1 6 1
M  V30 7 1 6 7
M  V30 8 1 7 8
M  V30 9 1 1 8
M  V30 10 1 9 10
M  V30 11 2 9 11
M  V30 12 1 2 9
M  V30 13 1 3 12
M  V30 14 2 8 13
M  V30 15 2 15 16
M  V30 16 1 15 17
M  V30 17 1 17 18
M  V30 18 2 17 19
M  V30 19 1 14 15
M  V30 20 1 7 14 CFG=3
M  V30 21 1 12 20
M  V30 22 2 21 22
M  V30 23 1 22 23
M  V30 24 2 23 24
M  V30 25 1 24 25
M  V30 26 1 20 21
M  V30 27 2 20 25
M  V30 28 1 26 27
M  V30 29 2 27 28
M  V30 30 1 28 29
M  V30 31 1 18 26
M  V30 32 2 18 29
M  V30 33 1 27 30
M  V30 END BOND
M  V30 BEGIN COLLECTION
M  V30 MDLV30/STEREL1 ATOMS=(1 7)
M  V30 END COLLECTION
M  V30 END CTAB
M  END
>  <type>
systematic

$$$$
5-Thia-1-azabicyclo[4.2.0]oct-2-ene-2-carboxylic acid, 7-[(hydroxyphenylacetyl)amino]-8-oxo-3-[[[1-(2-propynyl)-1H-tetrazol-5-yl]thio]methyl]-, [6 R-[6α,7β(R*)]]-
  Mrv2401 11032420292D          

  0  0  0     0  0            999 V3000
M  V30 BEGIN CTAB
M  V30 COUNTS 33 36 0 0 1
M  V30 BEGIN ATOM
M  V30 1 N 3.1555 -0.2818 0 0
M  V30 2 C 4.4892 0.4882 0 0
M  V30 3 C 5.8229 -0.2818 0 0
M  V30 4 C 5.8229 -1.8218 0 0
M  V30 5 S 4.4892 -2.5918 0 0
M  V30 6 C 3.1555 -1.8218 0 0 CFG=2
M  V30 7 C 1.6155 -1.8218 0 0 CFG=1
M  V30 8 C 1.6155 -0.2818 0 0
M  V30 9 C 4.4892 2.0282 0 0
M  V30 10 O 5.8229 2.7982 0 0
M  V30 11 O 3.1555 2.7982 0 0
M  V30 12 C 7.1566 0.4882 0 0
M  V30 13 S 8.4902 -0.2818 0 0
M  V30 14 N 9.9849 2.0197 0 0
M  V30 15 N 11.4912 2.3399 0 0
M  V30 16 N 12.2612 1.0062 0 0
M  V30 17 N 11.2308 -0.1382 0 0
M  V30 18 C 9.8239 0.4882 0 0
M  V30 19 C 8.8404 3.0502 0 0
M  V30 20 C 9.1606 4.5565 0 0
M  V30 21 C 9.4808 6.0629 0 0
M  V30 22 O 0.5266 0.8071 0 0
M  V30 23 N 0.5266 -2.9108 0 0
M  V30 24 C -0.961 -2.5122 0 0
M  V30 25 O -1.3595 -1.0247 0 0
M  V30 26 C -2.0499 -3.6011 0 0
M  V30 27 C -3.5374 -3.2026 0 0
M  V30 28 C -4.6264 -4.2915 0 0
M  V30 29 C -6.1139 -3.8929 0 0
M  V30 30 C -6.5125 -2.4054 0 0
M  V30 31 C -5.4235 -1.3165 0 0
M  V30 32 C -3.936 -1.715 0 0
M  V30 33 O -1.6513 -5.0887 0 0
M  V30 END ATOM
M  V30 BEGIN BOND
M  V30 1 1 1 2
M  V30 2 2 2 3
M  V30 3 1 3 4
M  V30 4 1 4 5
M  V30 5 1 6 5
M  V30 6 1 6 1 CFG=3
M  V30 7 1 6 7
M  V30 8 1 7 8
M  V30 9 1 1 8
M  V30 10 1 9 10
M  V30 11 2 9 11
M  V30 12 1 2 9
M  V30 13 1 14 15
M  V30 14 2 15 16
M  V30 15 1 16 17
M  V30 16 2 17 18
M  V30 17 1 14 18
M  V30 18 1 19 20
M  V30 19 3 20 21
M  V30 20 1 14 19
M  V30 21 1 13 18
M  V30 22 1 12 13
M  V30 23 1 3 12
M  V30 24 2 8 22
M  V30 25 2 24 25
M  V30 26 1 24 26
M  V30 27 2 27 28
M  V30 28 1 28 29
M  V30 29 2 29 30
M  V30 30 1 30 31
M  V30 31 2 31 32
M  V30 32 1 27 32
M  V30 33 1 26 27
M  V30 34 1 26 33
M  V30 35 1 23 24
M  V30 36 1 7 23 CFG=3
M  V30 END BOND
M  V30 BEGIN COLLECTION
M  V30 MDLV30/STEREL1 ATOMS=(1 7)
M  V30 END COLLECTION
M  V30 END CTAB
M  END
>  <type>
systematic

$$$$

  Mrv2401 11042401012D          

 29 32  0  0  0  0            999 V2000
   -7.4669    1.2006    0.0000 C   0  0  0  0  0  0  0  0  0  0  0  0
   -8.1813    0.7881    0.0000 C   0  0  0  0  0  0  0  0  0  0  0  0
   -8.1813   -0.0370    0.0000 C   0  0  0  0  0  0  0  0  0  0  0  0
   -7.4669   -0.4495    0.0000 C   0  0  0  0  0  0  0  0  0  0  0  0
   -6.7524   -0.0370    0.0000 C   0  0  0  0  0  0  0  0  0  0  0  0
   -6.7524    0.7881    0.0000 C   0  0  0  0  0  0  0  0  0  0  0  0
   -6.0379   -0.4495    0.0000 C   0  0  1  0  0  0  0  0  0  0  0  0
   -5.3235   -0.0369    0.0000 C   0  0  0  0  0  0  0  0  0  0  0  0
   -4.6090   -0.4494    0.0000 N   0  0  0  0  0  0  0  0  0  0  0  0
   -6.0379   -1.2745    0.0000 O   0  0  0  0  0  0  0  0  0  0  0  0
   -5.3235    0.7881    0.0000 O   0  0  0  0  0  0  0  0  0  0  0  0
   -3.8945   -0.0369    0.0000 C   0  0  2  0  0  0  0  0  0  0  0  0
   -3.1408   -0.3725    0.0000 C   0  0  0  0  0  0  0  0  0  0  0  0
   -2.5888    0.2406    0.0000 O   0  0  0  0  0  0  0  0  0  0  0  0
   -3.0013    0.9551    0.0000 C   0  0  2  0  0  0  0  0  0  0  0  0
   -3.8083    0.7835    0.0000 C   0  0  2  0  0  0  0  0  0  0  0  0
   -4.4214    1.3356    0.0000 O   0  0  0  0  0  0  0  0  0  0  0  0
   -2.9693   -1.1794    0.0000 C   0  0  0  0  0  0  0  0  0  0  0  0
   -2.6658    1.7087    0.0000 N   0  0  0  0  0  0  0  0  0  0  0  0
   -1.8588    1.8803    0.0000 C   0  0  0  0  0  0  0  0  0  0  0  0
   -1.7726    2.7007    0.0000 C   0  0  0  0  0  0  0  0  0  0  0  0
   -2.5263    3.0363    0.0000 N   0  0  0  0  0  0  0  0  0  0  0  0
   -3.0783    2.4232    0.0000 C   0  0  0  0  0  0  0  0  0  0  0  0
   -1.1914    1.3954    0.0000 N   0  0  0  0  0  0  0  0  0  0  0  0
   -0.4377    1.7309    0.0000 C   0  0  0  0  0  0  0  0  0  0  0  0
   -0.3515    2.5514    0.0000 N   0  0  0  0  0  0  0  0  0  0  0  0
   -1.0189    3.0363    0.0000 C   0  0  0  0  0  0  0  0  0  0  0  0
   -0.9327    3.8568    0.0000 N   0  0  0  0  0  0  0  0  0  0  0  0
   -8.8958    1.2006    0.0000 Cl  0  0  0  0  0  0  0  0  0  0  0  0
  1  2  2  0  0  0  0
  2  3  1  0  0  0  0
  3  4  2  0  0  0  0
  4  5  1  0  0  0  0
  5  6  2  0  0  0  0
  1  6  1  0  0  0  0
  5  7  1  0  0  0  0
  7  8  1  0  0  0  0
  8  9  1  0  0  0  0
  7 10  1  1  0  0  0
  8 11  2  0  0  0  0
 12  9  1  1  0  0  0
 13 14  1  0  0  0  0
 14 15  1  0  0  0  0
 15 16  1  0  0  0  0
 12 13  1  0  0  0  0
 12 16  1  0  0  0  0
 16 17  1  1  0  0  0
 13 18  1  0  0  0  0
 15 19  1  6  0  0  0
 21 22  1  0  0  0  0
 22 23  2  0  0  0  0
 19 20  1  0  0  0  0
 19 23  1  0  0  0  0
 24 25  1  0  0  0  0
 25 26  2  0  0  0  0
 26 27  1  0  0  0  0
 20 24  2  0  0  0  0
 21 27  2  0  0  0  0
 21 20  1  0  0  0  0
 27 28  1  0  0  0  0
  2 29  1  0  0  0  0
M  END
$$$$
5-Thia-1-azabicyclo[4.2.0]oct-2-ene-2-carboxylic acid, 3-[[(4,5-dimethyl-4H-1,2,4-triazol-3-yl)thio]methyl]-7-[(hydroxyphenylacetyl)amino]-8-oxo-, [6 R-(6α,7β)]-
  Mrv2401 11032420342D          

 32 35  0  0  1  0            999 V2000
    1.6905   -0.1510    0.0000 N   0  0  0  0  0  0  0  0  0  0  0  0
    2.4049    0.2615    0.0000 C   0  0  0  0  0  0  0  0  0  0  0  0
    3.1194   -0.1510    0.0000 C   0  0  0  0  0  0  0  0  0  0  0  0
    3.1194   -0.9760    0.0000 C   0  0  0  0  0  0  0  0  0  0  0  0
    2.4049   -1.3885    0.0000 S   0  0  0  0  0  0  0  0  0  0  0  0
    1.6905   -0.9760    0.0000 C   0  0  2  0  0  0  0  0  0  0  0  0
    0.8655   -0.9760    0.0000 C   0  0  2  0  0  0  0  0  0  0  0  0
    0.8655   -0.1510    0.0000 C   0  0  0  0  0  0  0  0  0  0  0  0
    2.4049    1.0865    0.0000 C   0  0  0  0  0  0  0  0  0  0  0  0
    3.1194    1.4990    0.0000 O   0  0  0  0  0  0  0  0  0  0  0  0
    1.6905    1.4990    0.0000 O   0  0  0  0  0  0  0  0  0  0  0  0
    0.2821    0.4324    0.0000 O   0  0  0  0  0  0  0  0  0  0  0  0
    0.2821   -1.5593    0.0000 N   0  0  0  0  0  0  0  0  0  0  0  0
   -0.5148   -1.3458    0.0000 C   0  0  0  0  0  0  0  0  0  0  0  0
   -0.7283   -0.5489    0.0000 O   0  0  0  0  0  0  0  0  0  0  0  0
   -1.0982   -1.9292    0.0000 C   0  0  0  0  0  0  0  0  0  0  0  0
   -1.8950   -1.7157    0.0000 C   0  0  0  0  0  0  0  0  0  0  0  0
   -2.4784   -2.2990    0.0000 C   0  0  0  0  0  0  0  0  0  0  0  0
   -3.2753   -2.0855    0.0000 C   0  0  0  0  0  0  0  0  0  0  0  0
   -3.4888   -1.2886    0.0000 C   0  0  0  0  0  0  0  0  0  0  0  0
   -2.9055   -0.7052    0.0000 C   0  0  0  0  0  0  0  0  0  0  0  0
   -2.1086   -0.9188    0.0000 C   0  0  0  0  0  0  0  0  0  0  0  0
   -0.8846   -2.7261    0.0000 O   0  0  0  0  0  0  0  0  0  0  0  0
    3.8339    0.2615    0.0000 C   0  0  0  0  0  0  0  0  0  0  0  0
    3.8339    1.0865    0.0000 S   0  0  0  0  0  0  0  0  0  0  0  0
    5.8540    1.7766    0.0000 N   0  0  0  0  0  0  0  0  0  0  0  0
    5.3020    1.1635    0.0000 N   0  0  0  0  0  0  0  0  0  0  0  0
    4.5483    1.4990    0.0000 C   0  0  0  0  0  0  0  0  0  0  0  0
    4.6346    2.3195    0.0000 N   0  0  0  0  0  0  0  0  0  0  0  0
    5.4415    2.4910    0.0000 C   0  0  0  0  0  0  0  0  0  0  0  0
    4.0215    2.8715    0.0000 C   0  0  0  0  0  0  0  0  0  0  0  0
    5.7771    3.2447    0.0000 C   0  0  0  0  0  0  0  0  0  0  0  0
  1  2  1  0  0  0  0
  2  3  2  0  0  0  0
  3  4  1  0  0  0  0
  4  5  1  0  0  0  0
  6  5  1  0  0  0  0
  6  1  1  6  0  0  0
  6  7  1  0  0  0  0
  7  8  1  0  0  0  0
  1  8  1  0  0  0  0
  9 10  1  0  0  0  0
  9 11  2  0  0  0  0
  2  9  1  0  0  0  0
  8 12  2  0  0  0  0
 14 15  2  0  0  0  0
 14 16  1  0  0  0  0
 17 18  2  0  0  0  0
 18 19  1  0  0  0  0
 19 20  2  0  0  0  0
 20 21  1  0  0  0  0
 21 22  2  0  0  0  0
 17 22  1  0  0  0  0
 16 17  1  0  0  0  0
 16 23  1  0  0  0  0
 13 14  1  0  0  0  0
  7 13  1  1  0  0  0
 26 27  1  0  0  0  0
 27 28  2  0  0  0  0
 28 29  1  0  0  0  0
 29 30  1  0  0  0  0
 26 30  2  0  0  0  0
 29 31  1  0  0  0  0
 30 32  1  0  0  0  0
 25 28  1  0  0  0  0
 24 25  1  0  0  0  0
  3 24  1  0  0  0  0
M  END
>  <type>
systematic

$$$$
3-[(6,11-Dihydro-5,11-dimethyl-6-oxo-5H-pyrimido[4,5- b ][1,4]benzodiazepin-2-yl)amino]benzoic acid 2- (3-carboxycyclobutylidene)hydrazide
  Mrv2401 11032420352D          

 36 40  0  0  0  0            999 V2000
   -3.0928    1.8092    0.0000 C   0  0  0  0  0  0  0  0  0  0  0  0
   -3.2764    2.6135    0.0000 C   0  0  0  0  0  0  0  0  0  0  0  0
   -2.6716    3.1746    0.0000 O   0  0  0  0  0  0  0  0  0  0  0  0
   -2.3044    1.5660    0.0000 C   0  0  0  0  0  0  0  0  0  0  0  0
   -2.1208    0.7617    0.0000 C   0  0  0  0  0  0  0  0  0  0  0  0
   -2.7256    0.2005    0.0000 C   0  0  0  0  0  0  0  0  0  0  0  0
   -3.5140    0.4437    0.0000 C   0  0  0  0  0  0  0  0  0  0  0  0
   -3.6975    1.2480    0.0000 C   0  0  0  0  0  0  0  0  0  0  0  0
   -4.2483    3.6610    0.0000 N   0  0  0  0  0  0  0  0  0  0  0  0
   -4.0647    2.8567    0.0000 N   0  0  0  0  0  0  0  0  0  0  0  0
   -3.6435    4.2221    0.0000 C   0  0  0  0  0  0  0  0  0  0  0  0
   -3.6127    5.0465    0.0000 C   0  0  0  0  0  0  0  0  0  0  0  0
   -2.7882    5.0157    0.0000 C   0  0  0  0  0  0  0  0  0  0  0  0
   -2.8191    4.1913    0.0000 C   0  0  0  0  0  0  0  0  0  0  0  0
   -2.1835    5.5768    0.0000 C   0  0  0  0  0  0  0  0  0  0  0  0
   -1.3951    5.3337    0.0000 O   0  0  0  0  0  0  0  0  0  0  0  0
   -2.3671    6.3811    0.0000 O   0  0  0  0  0  0  0  0  0  0  0  0
   -1.3325    0.5185    0.0000 N   0  0  0  0  0  0  0  0  0  0  0  0
    2.1520    1.3976    0.0000 C   0  0  0  0  0  0  0  0  0  0  0  0
    1.4087    1.0397    0.0000 N   0  0  0  0  0  0  0  0  0  0  0  0
    0.9962    2.8469    0.0000 N   0  0  0  0  0  0  0  0  0  0  0  0
    1.8212    2.8469    0.0000 C   0  0  0  0  0  0  0  0  0  0  0  0
    2.3356    2.2019    0.0000 C   0  0  0  0  0  0  0  0  0  0  0  0
    3.1239    2.4451    0.0000 C   0  0  0  0  0  0  0  0  0  0  0  0
    3.7287    1.8840    0.0000 C   0  0  0  0  0  0  0  0  0  0  0  0
    3.5451    1.0796    0.0000 C   0  0  0  0  0  0  0  0  0  0  0  0
    2.7568    0.8365    0.0000 C   0  0  0  0  0  0  0  0  0  0  0  0
    0.4818    2.2019    0.0000 C   0  0  0  0  0  0  0  0  0  0  0  0
    0.6654    1.3976    0.0000 C   0  0  0  0  0  0  0  0  0  0  0  0
    0.0606    0.8365    0.0000 N   0  0  0  0  0  0  0  0  0  0  0  0
   -0.7277    1.0796    0.0000 C   0  0  0  0  0  0  0  0  0  0  0  0
   -0.9113    1.8840    0.0000 N   0  0  0  0  0  0  0  0  0  0  0  0
   -0.3065    2.4451    0.0000 C   0  0  0  0  0  0  0  0  0  0  0  0
    2.1791    3.5902    0.0000 O   0  0  0  0  0  0  0  0  0  0  0  0
    0.6382    3.5902    0.0000 C   0  0  0  0  0  0  0  0  0  0  0  0
    1.4087    0.2147    0.0000 C   0  0  0  0  0  0  0  0  0  0  0  0
  1  2  1  0  0  0  0
  2  3  2  0  0  0  0
  1  4  2  0  0  0  0
  4  5  1  0  0  0  0
  5  6  2  0  0  0  0
  6  7  1  0  0  0  0
  7  8  2  0  0  0  0
  1  8  1  0  0  0  0
  9 10  1  0  0  0  0
 11 12  1  0  0  0  0
 12 13  1  0  0  0  0
 13 14  1  0  0  0  0
 11 14  1  0  0  0  0
 15 16  1  0  0  0  0
 15 17  2  0  0  0  0
 13 15  1  0  0  0  0
  9 11  2  0  0  0  0
  2 10  1  0  0  0  0
 19 20  1  0  0  0  0
 20 29  1  0  0  0  0
 28 21  1  0  0  0  0
 21 22  1  0  0  0  0
 22 23  1  0  0  0  0
 19 23  2  0  0  0  0
 23 24  1  0  0  0  0
 24 25  2  0  0  0  0
 25 26  1  0  0  0  0
 26 27  2  0  0  0  0
 19 27  1  0  0  0  0
 28 29  2  0  0  0  0
 29 30  1  0  0  0  0
 30 31  2  0  0  0  0
 31 32  1  0  0  0  0
 32 33  2  0  0  0  0
 28 33  1  0  0  0  0
 22 34  2  0  0  0  0
 21 35  1  0  0  0  0
 20 36  1  0  0  0  0
 18 31  1  0  0  0  0
  5 18  1  0  0  0  0
M  END
>  <type>
systematic

$$$$
(4R,5S,6S)-3-[[(3S,5S)-5-[[2-(3-Carboxyphenyl)hydrazinyl]carbonyl]-3-pyrrolidinyl]thio]-6-[(1R)-1-hydroxyethyl]-4-methyl-7-oxo-1-azabicyclo[3.2.0]hept-2-ene-2-carboxylic acid
  Mrv2401 11032420352D          

 34 37  0  0  1  0            999 V2000
    1.7733    0.2488    0.0000 N   0  0  0  0  0  0  0  0  0  0  0  0
    2.5579    0.5038    0.0000 C   0  0  0  0  0  0  0  0  0  0  0  0
    3.0428   -0.1637    0.0000 C   0  0  0  0  0  0  0  0  0  0  0  0
    2.5579   -0.8311    0.0000 C   0  0  1  0  0  0  0  0  0  0  0  0
    1.7733   -0.5762    0.0000 C   0  0  2  0  0  0  0  0  0  0  0  0
    0.9483   -0.5762    0.0000 C   0  0  2  0  0  0  0  0  0  0  0  0
    0.9483    0.2488    0.0000 C   0  0  0  0  0  0  0  0  0  0  0  0
    2.8129    1.2884    0.0000 C   0  0  0  0  0  0  0  0  0  0  0  0
    3.6198    1.4599    0.0000 O   0  0  0  0  0  0  0  0  0  0  0  0
    2.2608    1.9015    0.0000 O   0  0  0  0  0  0  0  0  0  0  0  0
    0.3649    0.8322    0.0000 O   0  0  0  0  0  0  0  0  0  0  0  0
    2.8129   -1.6157    0.0000 C   0  0  0  0  0  0  0  0  0  0  0  0
    0.3649   -1.1595    0.0000 C   0  0  1  0  0  0  0  0  0  0  0  0
   -0.4319   -0.9460    0.0000 C   0  0  0  0  0  0  0  0  0  0  0  0
    0.5785   -1.9564    0.0000 O   0  0  0  0  0  0  0  0  0  0  0  0
    3.8678   -0.1637    0.0000 S   0  0  0  0  0  0  0  0  0  0  0  0
    4.5579   -2.1839    0.0000 N   0  0  0  0  0  0  0  0  0  0  0  0
    3.9448   -1.6318    0.0000 C   0  0  0  0  0  0  0  0  0  0  0  0
    4.2803   -0.8782    0.0000 C   0  0  2  0  0  0  0  0  0  0  0  0
    5.1008   -0.9644    0.0000 C   0  0  0  0  0  0  0  0  0  0  0  0
    5.2724   -1.7714    0.0000 C   0  0  1  0  0  0  0  0  0  0  0  0
    6.0260   -2.1069    0.0000 C   0  0  0  0  0  0  0  0  0  0  0  0
    6.6935   -1.6220    0.0000 O   0  0  0  0  0  0  0  0  0  0  0  0
    6.1123   -2.9274    0.0000 N   0  0  0  0  0  0  0  0  0  0  0  0
    6.8659   -3.2630    0.0000 N   0  0  0  0  0  0  0  0  0  0  0  0
    6.9522   -4.0834    0.0000 C   0  0  0  0  0  0  0  0  0  0  0  0
    7.7059   -4.4190    0.0000 C   0  0  0  0  0  0  0  0  0  0  0  0
    7.7921   -5.2395    0.0000 C   0  0  0  0  0  0  0  0  0  0  0  0
    7.1246   -5.7244    0.0000 C   0  0  0  0  0  0  0  0  0  0  0  0
    6.3710   -5.3888    0.0000 C   0  0  0  0  0  0  0  0  0  0  0  0
    6.2847   -4.5684    0.0000 C   0  0  0  0  0  0  0  0  0  0  0  0
    8.5458   -5.5750    0.0000 C   0  0  0  0  0  0  0  0  0  0  0  0
    9.2132   -5.0901    0.0000 O   0  0  0  0  0  0  0  0  0  0  0  0
    8.6320   -6.3955    0.0000 O   0  0  0  0  0  0  0  0  0  0  0  0
  1  2  1  0  0  0  0
  2  3  2  0  0  0  0
  4  3  1  0  0  0  0
  5  4  1  0  0  0  0
  5  1  1  6  0  0  0
  5  6  1  0  0  0  0
  6  7  1  0  0  0  0
  1  7  1  0  0  0  0
  8  9  1  0  0  0  0
  8 10  2  0  0  0  0
  2  8  1  0  0  0  0
  7 11  2  0  0  0  0
  4 12  1  6  0  0  0
 13 14  1  0  0  0  0
 13 15  1  6  0  0  0
  6 13  1  1  0  0  0
 17 18  1  0  0  0  0
 19 18  1  0  0  0  0
 19 20  1  0  0  0  0
 21 20  1  0  0  0  0
 21 17  1  0  0  0  0
 22 23  2  0  0  0  0
 24 25  1  0  0  0  0
 26 27  2  0  0  0  0
 27 28  1  0  0  0  0
 28 29  2  0  0  0  0
 29 30  1  0  0  0  0
 30 31  2  0  0  0  0
 26 31  1  0  0  0  0
 32 33  1  0  0  0  0
 32 34  2  0  0  0  0
 28 32  1  0  0  0  0
 25 26  1  0  0  0  0
 22 24  1  0  0  0  0
 21 22  1  1  0  0  0
 19 16  1  1  0  0  0
  3 16  1  0  0  0  0
M  END
>  <type>
systematic

$$$$
5-Thia-1-azabicyclo[4.2.0]oct-2-ene-2-carboxylic acid, 7-[[(5-amino-1,3,4-thiadiazol-2-yl)hydroxyacetyl]amino]-8-oxo-3-[(1,3,4-thiadiazol-2-ylthio)methyl]-, [6 R-(6α,7β)]-
  Mrv2401 11032420362D          

 30 33  0  0  1  0            999 V2000
    1.6905   -0.1510    0.0000 N   0  0  0  0  0  0  0  0  0  0  0  0
    2.4049    0.2615    0.0000 C   0  0  0  0  0  0  0  0  0  0  0  0
    3.1194   -0.1510    0.0000 C   0  0  0  0  0  0  0  0  0  0  0  0
    3.1194   -0.9760    0.0000 C   0  0  0  0  0  0  0  0  0  0  0  0
    2.4049   -1.3885    0.0000 S   0  0  0  0  0  0  0  0  0  0  0  0
    1.6905   -0.9760    0.0000 C   0  0  2  0  0  0  0  0  0  0  0  0
    0.8655   -0.9760    0.0000 C   0  0  2  0  0  0  0  0  0  0  0  0
    0.8655   -0.1510    0.0000 C   0  0  0  0  0  0  0  0  0  0  0  0
    2.4049    1.0865    0.0000 C   0  0  0  0  0  0  0  0  0  0  0  0
    3.1194    1.4990    0.0000 O   0  0  0  0  0  0  0  0  0  0  0  0
    1.6905    1.4990    0.0000 O   0  0  0  0  0  0  0  0  0  0  0  0
    3.8339    0.2615    0.0000 C   0  0  0  0  0  0  0  0  0  0  0  0
    4.5483   -0.1510    0.0000 S   0  0  0  0  0  0  0  0  0  0  0  0
    6.0165   -0.0740    0.0000 S   0  0  0  0  0  0  0  0  0  0  0  0
    5.2628    0.2615    0.0000 C   0  0  0  0  0  0  0  0  0  0  0  0
    5.3490    1.0820    0.0000 N   0  0  0  0  0  0  0  0  0  0  0  0
    6.1560    1.2535    0.0000 N   0  0  0  0  0  0  0  0  0  0  0  0
    6.5685    0.5391    0.0000 C   0  0  0  0  0  0  0  0  0  0  0  0
    0.2821    0.4324    0.0000 O   0  0  0  0  0  0  0  0  0  0  0  0
    0.2821   -1.5593    0.0000 N   0  0  0  0  0  0  0  0  0  0  0  0
    0.4956   -2.3562    0.0000 C   0  0  0  0  0  0  0  0  0  0  0  0
    1.2925   -2.5698    0.0000 O   0  0  0  0  0  0  0  0  0  0  0  0
   -0.0877   -2.9396    0.0000 C   0  0  0  0  0  0  0  0  0  0  0  0
   -0.8846   -2.7261    0.0000 O   0  0  0  0  0  0  0  0  0  0  0  0
   -0.3934   -4.3776    0.0000 S   0  0  0  0  0  0  0  0  0  0  0  0
    0.1258   -3.7365    0.0000 C   0  0  0  0  0  0  0  0  0  0  0  0
    0.8960   -4.0321    0.0000 N   0  0  0  0  0  0  0  0  0  0  0  0
    0.8528   -4.8560    0.0000 N   0  0  0  0  0  0  0  0  0  0  0  0
    0.0559   -5.0695    0.0000 C   0  0  0  0  0  0  0  0  0  0  0  0
   -0.2397   -5.8397    0.0000 N   0  0  0  0  0  0  0  0  0  0  0  0
  1  2  1  0  0  0  0
  2  3  2  0  0  0  0
  3  4  1  0  0  0  0
  4  5  1  0  0  0  0
  6  5  1  0  0  0  0
  6  1  1  6  0  0  0
  6  7  1  0  0  0  0
  7  8  1  0  0  0  0
  1  8  1  0  0  0  0
  9 10  1  0  0  0  0
  9 11  2  0  0  0  0
  2  9  1  0  0  0  0
 14 15  1  0  0  0  0
 15 16  2  0  0  0  0
 16 17  1  0  0  0  0
 17 18  2  0  0  0  0
 14 18  1  0  0  0  0
 13 15  1  0  0  0  0
 12 13  1  0  0  0  0
  3 12  1  0  0  0  0
  8 19  2  0  0  0  0
 21 22  2  0  0  0  0
 21 23  1  0  0  0  0
 23 24  1  0  0  0  0
 25 26  1  0  0  0  0
 26 27  2  0  0  0  0
 27 28  1  0  0  0  0
 28 29  2  0  0  0  0
 25 29  1  0  0  0  0
 29 30  1  0  0  0  0
 23 26  1  0  0  0  0
 20 21  1  0  0  0  0
  7 20  1  1  0  0  0
M  END
>  <type>
systematic

$$$$
5-Thia-1-azabicyclo[4.2.0]oct-2-ene-2-carboxylic acid, 7-[[(2,3-dihydro-4-thiazolyl)oxoacetyl]amino]-3-[[(1-methyl-1H-tetrazol-5-yl)thio]methyl]-8-oxo-, (6R-trans)-
  Mrv2401 11032420372D          

 30 33  0  0  1  0            999 V2000
    1.6905   -0.1510    0.0000 N   0  0  0  0  0  0  0  0  0  0  0  0
    2.4049    0.2615    0.0000 C   0  0  0  0  0  0  0  0  0  0  0  0
    3.1194   -0.1510    0.0000 C   0  0  0  0  0  0  0  0  0  0  0  0
    3.1194   -0.9760    0.0000 C   0  0  0  0  0  0  0  0  0  0  0  0
    2.4049   -1.3885    0.0000 S   0  0  0  0  0  0  0  0  0  0  0  0
    1.6905   -0.9760    0.0000 C   0  0  2  0  0  0  0  0  0  0  0  0
    0.8655   -0.9760    0.0000 C   0  0  0  0  0  0  0  0  0  0  0  0
    0.8655   -0.1510    0.0000 C   0  0  0  0  0  0  0  0  0  0  0  0
    2.4049    1.0865    0.0000 C   0  0  0  0  0  0  0  0  0  0  0  0
    3.1194    1.4990    0.0000 O   0  0  0  0  0  0  0  0  0  0  0  0
    1.6905    1.4990    0.0000 O   0  0  0  0  0  0  0  0  0  0  0  0
    0.2821    0.4324    0.0000 O   0  0  0  0  0  0  0  0  0  0  0  0
    3.8339    0.2615    0.0000 C   0  0  0  0  0  0  0  0  0  0  0  0
    4.5483   -0.1510    0.0000 S   0  0  0  0  0  0  0  0  0  0  0  0
    5.3490    1.0820    0.0000 N   0  0  0  0  0  0  0  0  0  0  0  0
    6.1560    1.2535    0.0000 N   0  0  0  0  0  0  0  0  0  0  0  0
    6.5685    0.5391    0.0000 N   0  0  0  0  0  0  0  0  0  0  0  0
    6.0165   -0.0740    0.0000 N   0  0  0  0  0  0  0  0  0  0  0  0
    5.2628    0.2615    0.0000 C   0  0  0  0  0  0  0  0  0  0  0  0
    4.7360    1.6340    0.0000 C   0  0  0  0  0  0  0  0  0  0  0  0
    0.2821   -1.5593    0.0000 N   0  0  0  0  0  0  0  0  0  0  0  0
   -0.5148   -1.3458    0.0000 C   0  0  0  0  0  0  0  0  0  0  0  0
   -0.7283   -0.5489    0.0000 O   0  0  0  0  0  0  0  0  0  0  0  0
   -1.0982   -1.9292    0.0000 C   0  0  0  0  0  0  0  0  0  0  0  0
   -0.8846   -2.7261    0.0000 O   0  0  0  0  0  0  0  0  0  0  0  0
   -3.2281   -1.7855    0.0000 S   0  0  0  0  0  0  0  0  0  0  0  0
   -3.0146   -0.9886    0.0000 C   0  0  0  0  0  0  0  0  0  0  0  0
   -2.1907   -0.9455    0.0000 N   0  0  0  0  0  0  0  0  0  0  0  0
   -1.8950   -1.7157    0.0000 C   0  0  0  0  0  0  0  0  0  0  0  0
   -2.5362   -2.2348    0.0000 C   0  0  0  0  0  0  0  0  0  0  0  0
  1  2  1  0  0  0  0
  2  3  2  0  0  0  0
  3  4  1  0  0  0  0
  4  5  1  0  0  0  0
  6  5  1  0  0  0  0
  6  1  1  6  0  0  0
  6  7  1  0  0  0  0
  7  8  1  0  0  0  0
  1  8  1  0  0  0  0
  9 10  1  0  0  0  0
  9 11  2  0  0  0  0
  2  9  1  0  0  0  0
  8 12  2  0  0  0  0
 15 16  1  0  0  0  0
 16 17  2  0  0  0  0
 17 18  1  0  0  0  0
 18 19  2  0  0  0  0
 15 19  1  0  0  0  0
 15 20  1  0  0  0  0
 14 19  1  0  0  0  0
 13 14  1  0  0  0  0
  3 13  1  0  0  0  0
 22 23  2  0  0  0  0
 22 24  1  0  0  0  0
 24 25  2  0  0  0  0
 26 27  1  0  0  0  0
 27 28  1  0  0  0  0
 28 29  1  0  0  0  0
 29 30  2  0  0  0  0
 26 30  1  0  0  0  0
 24 29  1  0  0  0  0
 21 22  1  0  0  0  0
  7 21  1  0  0  0  0
M  END
>  <type>
systematic

$$$$
5-Thia-1-azabicyclo[4.2.0]oct-2-ene-2-carboxylic acid, 7-[(hydroxy-4-oxazolylacetyl)amino]-3-[[(1-methyl-1H-tetrazol-5-yl)thio]methyl]-8-oxo-, [6 R-(6α,7β)]-
  Mrv2401 11032420372D          

 30 33  0  0  1  0            999 V2000
    1.6905   -0.1510    0.0000 N   0  0  0  0  0  0  0  0  0  0  0  0
    2.4049    0.2615    0.0000 C   0  0  0  0  0  0  0  0  0  0  0  0
    3.1194   -0.1510    0.0000 C   0  0  0  0  0  0  0  0  0  0  0  0
    3.1194   -0.9760    0.0000 C   0  0  0  0  0  0  0  0  0  0  0  0
    2.4049   -1.3885    0.0000 S   0  0  0  0  0  0  0  0  0  0  0  0
    1.6905   -0.9760    0.0000 C   0  0  2  0  0  0  0  0  0  0  0  0
    0.8655   -0.9760    0.0000 C   0  0  2  0  0  0  0  0  0  0  0  0
    0.8655   -0.1510    0.0000 C   0  0  0  0  0  0  0  0  0  0  0  0
    2.4049    1.0865    0.0000 C   0  0  0  0  0  0  0  0  0  0  0  0
    3.1194    1.4990    0.0000 O   0  0  0  0  0  0  0  0  0  0  0  0
    1.6905    1.4990    0.0000 O   0  0  0  0  0  0  0  0  0  0  0  0
    0.2821    0.4324    0.0000 O   0  0  0  0  0  0  0  0  0  0  0  0
    3.8339    0.2615    0.0000 C   0  0  0  0  0  0  0  0  0  0  0  0
    4.5483   -0.1510    0.0000 S   0  0  0  0  0  0  0  0  0  0  0  0
    5.3490    1.0820    0.0000 N   0  0  0  0  0  0  0  0  0  0  0  0
    6.1560    1.2535    0.0000 N   0  0  0  0  0  0  0  0  0  0  0  0
    6.5685    0.5391    0.0000 N   0  0  0  0  0  0  0  0  0  0  0  0
    6.0165   -0.0740    0.0000 N   0  0  0  0  0  0  0  0  0  0  0  0
    5.2628    0.2615    0.0000 C   0  0  0  0  0  0  0  0  0  0  0  0
    4.7360    1.6340    0.0000 C   0  0  0  0  0  0  0  0  0  0  0  0
    0.2821   -1.5593    0.0000 N   0  0  0  0  0  0  0  0  0  0  0  0
   -0.5148   -1.3458    0.0000 C   0  0  0  0  0  0  0  0  0  0  0  0
   -0.7283   -0.5489    0.0000 O   0  0  0  0  0  0  0  0  0  0  0  0
   -1.0982   -1.9292    0.0000 C   0  0  0  0  0  0  0  0  0  0  0  0
   -3.2281   -1.7855    0.0000 O   0  0  0  0  0  0  0  0  0  0  0  0
   -3.0146   -0.9886    0.0000 C   0  0  0  0  0  0  0  0  0  0  0  0
   -2.1907   -0.9455    0.0000 N   0  0  0  0  0  0  0  0  0  0  0  0
   -1.8950   -1.7157    0.0000 C   0  0  0  0  0  0  0  0  0  0  0  0
   -2.5362   -2.2348    0.0000 C   0  0  0  0  0  0  0  0  0  0  0  0
   -0.8846   -2.7261    0.0000 O   0  0  0  0  0  0  0  0  0  0  0  0
  1  2  1  0  0  0  0
  2  3  2  0  0  0  0
  3  4  1  0  0  0  0
  4  5  1  0  0  0  0
  6  5  1  0  0  0  0
  6  1  1  6  0  0  0
  6  7  1  0  0  0  0
  7  8  1  0  0  0  0
  1  8  1  0  0  0  0
  9 10  1  0  0  0  0
  9 11  2  0  0  0  0
  2  9  1  0  0  0  0
  8 12  2  0  0  0  0
 15 16  1  0  0  0  0
 16 17  2  0  0  0  0
 17 18  1  0  0  0  0
 18 19  2  0  0  0  0
 15 19  1  0  0  0  0
 15 20  1  0  0  0  0
 14 19  1  0  0  0  0
 13 14  1  0  0  0  0
  3 13  1  0  0  0  0
 22 23  2  0  0  0  0
 22 24  1  0  0  0  0
 25 26  1  0  0  0  0
 26 27  2  0  0  0  0
 27 28  1  0  0  0  0
 28 29  2  0  0  0  0
 25 29  1  0  0  0  0
 24 28  1  0  0  0  0
 24 30  1  0  0  0  0
 21 22  1  0  0  0  0
  7 21  1  1  0  0  0
M  END
>  <type>
systematic

$$$$
2-[(6,11-Dihydro-5,11-dimethyl-6-oxo-5H-pyrimido[4,5- b ][1,4]benzodiazepin-2-yl)amino]benzoic acid 2- (3-carboxycyclobutylidene)hydrazide
  Mrv2401 11032420382D          

 36 40  0  0  0  0            999 V2000
   -2.7256    0.2005    0.0000 C   0  0  0  0  0  0  0  0  0  0  0  0
   -2.5420   -0.6038    0.0000 C   0  0  0  0  0  0  0  0  0  0  0  0
   -1.7537   -0.8470    0.0000 O   0  0  0  0  0  0  0  0  0  0  0  0
   -2.1208    0.7617    0.0000 C   0  0  0  0  0  0  0  0  0  0  0  0
   -2.3044    1.5660    0.0000 C   0  0  0  0  0  0  0  0  0  0  0  0
   -3.0928    1.8092    0.0000 C   0  0  0  0  0  0  0  0  0  0  0  0
   -3.6975    1.2480    0.0000 C   0  0  0  0  0  0  0  0  0  0  0  0
   -3.5140    0.4437    0.0000 C   0  0  0  0  0  0  0  0  0  0  0  0
   -3.9351   -0.9218    0.0000 N   0  0  0  0  0  0  0  0  0  0  0  0
   -3.1468   -1.1649    0.0000 N   0  0  0  0  0  0  0  0  0  0  0  0
   -4.5399   -1.4829    0.0000 C   0  0  0  0  0  0  0  0  0  0  0  0
   -4.5708   -2.3073    0.0000 C   0  0  0  0  0  0  0  0  0  0  0  0
   -5.3952   -2.2765    0.0000 C   0  0  0  0  0  0  0  0  0  0  0  0
   -5.3643   -1.4520    0.0000 C   0  0  0  0  0  0  0  0  0  0  0  0
   -6.0000   -2.8376    0.0000 C   0  0  0  0  0  0  0  0  0  0  0  0
   -6.7883   -2.5944    0.0000 O   0  0  0  0  0  0  0  0  0  0  0  0
   -5.8164   -3.6419    0.0000 O   0  0  0  0  0  0  0  0  0  0  0  0
   -1.3325    0.5185    0.0000 N   0  0  0  0  0  0  0  0  0  0  0  0
    2.1520    1.3976    0.0000 C   0  0  0  0  0  0  0  0  0  0  0  0
    1.4087    1.0397    0.0000 N   0  0  0  0  0  0  0  0  0  0  0  0
    0.9962    2.8469    0.0000 N   0  0  0  0  0  0  0  0  0  0  0  0
    1.8212    2.8469    0.0000 C   0  0  0  0  0  0  0  0  0  0  0  0
    2.3356    2.2019    0.0000 C   0  0  0  0  0  0  0  0  0  0  0  0
    3.1239    2.4451    0.0000 C   0  0  0  0  0  0  0  0  0  0  0  0
    3.7287    1.8840    0.0000 C   0  0  0  0  0  0  0  0  0  0  0  0
    3.5451    1.0796    0.0000 C   0  0  0  0  0  0  0  0  0  0  0  0
    2.7568    0.8365    0.0000 C   0  0  0  0  0  0  0  0  0  0  0  0
    0.4818    2.2019    0.0000 C   0  0  0  0  0  0  0  0  0  0  0  0
    0.6654    1.3976    0.0000 C   0  0  0  0  0  0  0  0  0  0  0  0
    0.0606    0.8365    0.0000 N   0  0  0  0  0  0  0  0  0  0  0  0
   -0.7277    1.0796    0.0000 C   0  0  0  0  0  0  0  0  0  0  0  0
   -0.9113    1.8840    0.0000 N   0  0  0  0  0  0  0  0  0  0  0  0
   -0.3065    2.4451    0.0000 C   0  0  0  0  0  0  0  0  0  0  0  0
    2.1791    3.5902    0.0000 O   0  0  0  0  0  0  0  0  0  0  0  0
    0.6382    3.5902    0.0000 C   0  0  0  0  0  0  0  0  0  0  0  0
    1.4087    0.2147    0.0000 C   0  0  0  0  0  0  0  0  0  0  0  0
  1  2  1  0  0  0  0
  2  3  2  0  0  0  0
  1  4  2  0  0  0  0
  4  5  1  0  0  0  0
  5  6  2  0  0  0  0
  6  7  1  0  0  0  0
  7  8  2  0  0  0  0
  1  8  1  0  0  0  0
  9 10  1  0  0  0  0
 11 12  1  0  0  0  0
 12 13  1  0  0  0  0
 13 14  1  0  0  0  0
 11 14  1  0  0  0  0
 15 16  1  0  0  0  0
 15 17  2  0  0  0  0
 13 15  1  0  0  0  0
  9 11  2  0  0  0  0
  2 10  1  0  0  0  0
 19 20  1  0  0  0  0
 20 29  1  0  0  0  0
 28 21  1  0  0  0  0
 21 22  1  0  0  0  0
 22 23  1  0  0  0  0
 19 23  2  0  0  0  0
 23 24  1  0  0  0  0
 24 25  2  0  0  0  0
 25 26  1  0  0  0  0
 26 27  2  0  0  0  0
 19 27  1  0  0  0  0
 28 29  2  0  0  0  0
 29 30  1  0  0  0  0
 30 31  2  0  0  0  0
 31 32  1  0  0  0  0
 32 33  2  0  0  0  0
 28 33  1  0  0  0  0
 22 34  2  0  0  0  0
 21 35  1  0  0  0  0
 20 36  1  0  0  0  0
 18 31  1  0  0  0  0
  4 18  1  0  0  0  0
M  END
>  <type>
systematic

$$$$
5-Thia-1-azabicyclo[4.2.0]oct-2-ene-2-carboxylic acid, 3-[[(4,5-dihydro-1-methyl-5-oxo-1H-1,2,4-triazol-3-yl)thio]methyl]-7-[(hydroxyphenylacetyl)amino]-8-oxo-, [6 R-(6α,7β)]-
  Mrv2401 11032420382D          

 32 35  0  0  1  0            999 V2000
    1.6905   -0.1510    0.0000 N   0  0  0  0  0  0  0  0  0  0  0  0
    2.4049    0.2615    0.0000 C   0  0  0  0  0  0  0  0  0  0  0  0
    3.1194   -0.1510    0.0000 C   0  0  0  0  0  0  0  0  0  0  0  0
    3.1194   -0.9760    0.0000 C   0  0  0  0  0  0  0  0  0  0  0  0
    2.4049   -1.3885    0.0000 S   0  0  0  0  0  0  0  0  0  0  0  0
    1.6905   -0.9760    0.0000 C   0  0  2  0  0  0  0  0  0  0  0  0
    0.8655   -0.9760    0.0000 C   0  0  2  0  0  0  0  0  0  0  0  0
    0.8655   -0.1510    0.0000 C   0  0  0  0  0  0  0  0  0  0  0  0
    2.4049    1.0865    0.0000 C   0  0  0  0  0  0  0  0  0  0  0  0
    3.1194    1.4990    0.0000 O   0  0  0  0  0  0  0  0  0  0  0  0
    1.6905    1.4990    0.0000 O   0  0  0  0  0  0  0  0  0  0  0  0
    0.2821    0.4324    0.0000 O   0  0  0  0  0  0  0  0  0  0  0  0
    0.2821   -1.5593    0.0000 N   0  0  0  0  0  0  0  0  0  0  0  0
   -0.5148   -1.3458    0.0000 C   0  0  0  0  0  0  0  0  0  0  0  0
   -0.7283   -0.5489    0.0000 O   0  0  0  0  0  0  0  0  0  0  0  0
   -1.0982   -1.9292    0.0000 C   0  0  0  0  0  0  0  0  0  0  0  0
   -1.8950   -1.7157    0.0000 C   0  0  0  0  0  0  0  0  0  0  0  0
   -2.4784   -2.2990    0.0000 C   0  0  0  0  0  0  0  0  0  0  0  0
   -3.2753   -2.0855    0.0000 C   0  0  0  0  0  0  0  0  0  0  0  0
   -3.4888   -1.2886    0.0000 C   0  0  0  0  0  0  0  0  0  0  0  0
   -2.9055   -0.7052    0.0000 C   0  0  0  0  0  0  0  0  0  0  0  0
   -2.1086   -0.9188    0.0000 C   0  0  0  0  0  0  0  0  0  0  0  0
   -0.8846   -2.7261    0.0000 O   0  0  0  0  0  0  0  0  0  0  0  0
    3.8339    0.2615    0.0000 C   0  0  0  0  0  0  0  0  0  0  0  0
    3.8339    1.0865    0.0000 S   0  0  0  0  0  0  0  0  0  0  0  0
    5.8540    1.7766    0.0000 N   0  0  0  0  0  0  0  0  0  0  0  0
    5.3020    1.1635    0.0000 N   0  0  0  0  0  0  0  0  0  0  0  0
    4.5483    1.4990    0.0000 C   0  0  0  0  0  0  0  0  0  0  0  0
    4.6346    2.3195    0.0000 N   0  0  0  0  0  0  0  0  0  0  0  0
    5.4415    2.4910    0.0000 C   0  0  0  0  0  0  0  0  0  0  0  0
    5.7771    3.2447    0.0000 O   0  0  0  0  0  0  0  0  0  0  0  0
    6.6745    1.6903    0.0000 C   0  0  0  0  0  0  0  0  0  0  0  0
  1  2  1  0  0  0  0
  2  3  2  0  0  0  0
  3  4  1  0  0  0  0
  4  5  1  0  0  0  0
  6  5  1  0  0  0  0
  6  1  1  6  0  0  0
  6  7  1  0  0  0  0
  7  8  1  0  0  0  0
  1  8  1  0  0  0  0
  9 10  1  0  0  0  0
  9 11  2  0  0  0  0
  2  9  1  0  0  0  0
  8 12  2  0  0  0  0
 14 15  2  0  0  0  0
 14 16  1  0  0  0  0
 17 18  2  0  0  0  0
 18 19  1  0  0  0  0
 19 20  2  0  0  0  0
 20 21  1  0  0  0  0
 21 22  2  0  0  0  0
 17 22  1  0  0  0  0
 16 17  1  0  0  0  0
 16 23  1  0  0  0  0
 13 14  1  0  0  0  0
  7 13  1  1  0  0  0
 26 27  1  0  0  0  0
 27 28  2  0  0  0  0
 28 29  1  0  0  0  0
 29 30  1  0  0  0  0
 26 30  1  0  0  0  0
 30 31  2  0  0  0  0
 26 32  1  0  0  0  0
 25 28  1  0  0  0  0
 24 25  1  0  0  0  0
  3 24  1  0  0  0  0
M  END
>  <type>
systematic

$$$$
5-Thia-1-azabicyclo[4.2.0]oct-2-ene-2-carboxylic acid, 3-[[(aminocarbonyl)oxy]methyl]-7-[[[2-(formylamino)-4-thiazolyl]oxoacetyl]amino]-8-oxo-, (6R-trans)-
  Mrv2401 11032420392D          

 30 32  0  0  1  0            999 V2000
    1.6905   -0.1510    0.0000 N   0  0  0  0  0  0  0  0  0  0  0  0
    2.4049    0.2615    0.0000 C   0  0  0  0  0  0  0  0  0  0  0  0
    3.1194   -0.1510    0.0000 C   0  0  0  0  0  0  0  0  0  0  0  0
    3.1194   -0.9760    0.0000 C   0  0  0  0  0  0  0  0  0  0  0  0
    2.4049   -1.3885    0.0000 S   0  0  0  0  0  0  0  0  0  0  0  0
    1.6905   -0.9760    0.0000 C   0  0  2  0  0  0  0  0  0  0  0  0
    0.8655   -0.9760    0.0000 C   0  0  0  0  0  0  0  0  0  0  0  0
    0.8655   -0.1510    0.0000 C   0  0  0  0  0  0  0  0  0  0  0  0
    2.4049    1.0865    0.0000 C   0  0  0  0  0  0  0  0  0  0  0  0
    3.1194    1.4990    0.0000 O   0  0  0  0  0  0  0  0  0  0  0  0
    1.6905    1.4990    0.0000 O   0  0  0  0  0  0  0  0  0  0  0  0
    0.2821    0.4324    0.0000 O   0  0  0  0  0  0  0  0  0  0  0  0
    0.2821   -1.5593    0.0000 N   0  0  0  0  0  0  0  0  0  0  0  0
   -0.5148   -1.3458    0.0000 C   0  0  0  0  0  0  0  0  0  0  0  0
   -0.7283   -0.5489    0.0000 O   0  0  0  0  0  0  0  0  0  0  0  0
   -1.0982   -1.9292    0.0000 C   0  0  0  0  0  0  0  0  0  0  0  0
   -0.8846   -2.7261    0.0000 O   0  0  0  0  0  0  0  0  0  0  0  0
   -3.2281   -1.7855    0.0000 S   0  0  0  0  0  0  0  0  0  0  0  0
   -3.0146   -0.9886    0.0000 C   0  0  0  0  0  0  0  0  0  0  0  0
   -2.1907   -0.9455    0.0000 N   0  0  0  0  0  0  0  0  0  0  0  0
   -1.8950   -1.7157    0.0000 C   0  0  0  0  0  0  0  0  0  0  0  0
   -2.5362   -2.2348    0.0000 C   0  0  0  0  0  0  0  0  0  0  0  0
   -3.5338   -0.3475    0.0000 N   0  0  0  0  0  0  0  0  0  0  0  0
   -4.3486   -0.4765    0.0000 C   0  0  0  0  0  0  0  0  0  0  0  0
   -4.8678    0.1646    0.0000 O   0  0  0  0  0  0  0  0  0  0  0  0
    3.8339    0.2615    0.0000 C   0  0  0  0  0  0  0  0  0  0  0  0
    3.8339    1.0865    0.0000 O   0  0  0  0  0  0  0  0  0  0  0  0
    4.5483    1.4990    0.0000 C   0  0  0  0  0  0  0  0  0  0  0  0
    4.5483    2.3240    0.0000 O   0  0  0  0  0  0  0  0  0  0  0  0
    5.2628    1.0865    0.0000 N   0  0  0  0  0  0  0  0  0  0  0  0
  1  2  1  0  0  0  0
  2  3  2  0  0  0  0
  3  4  1  0  0  0  0
  4  5  1  0  0  0  0
  6  5  1  0  0  0  0
  6  1  1  6  0  0  0
  6  7  1  0  0  0  0
  7  8  1  0  0  0  0
  1  8  1  0  0  0  0
  9 10  1  0  0  0  0
  9 11  2  0  0  0  0
  2  9  1  0  0  0  0
  8 12  2  0  0  0  0
 14 15  2  0  0  0  0
 14 16  1  0  0  0  0
 16 17  2  0  0  0  0
 18 19  1  0  0  0  0
 19 20  2  0  0  0  0
 20 21  1  0  0  0  0
 21 22  2  0  0  0  0
 18 22  1  0  0  0  0
 24 25  2  0  0  0  0
 23 24  1  0  0  0  0
 19 23  1  0  0  0  0
 16 21  1  0  0  0  0
 13 14  1  0  0  0  0
  7 13  1  0  0  0  0
 28 29  2  0  0  0  0
 28 30  1  0  0  0  0
 27 28  1  0  0  0  0
 26 27  1  0  0  0  0
  3 26  1  0  0  0  0
M  END
>  <type>
systematic

$$$$
5-Thia-1-azabicyclo[4.2.0]oct-2-ene-2-carboxylic acid, 7-[[(2-amino-4-thiazolyl)hydroxyacetyl]amino]-8-oxo-3-[(1,3,4-thiadiazol-2-ylthio)methyl]-, [6 R-(6α,7β)]-
  Mrv2401 11032420402D          

 30 33  0  0  1  0            999 V2000
    1.6905   -0.1510    0.0000 N   0  0  0  0  0  0  0  0  0  0  0  0
    2.4049    0.2615    0.0000 C   0  0  0  0  0  0  0  0  0  0  0  0
    3.1194   -0.1510    0.0000 C   0  0  0  0  0  0  0  0  0  0  0  0
    3.1194   -0.9760    0.0000 C   0  0  0  0  0  0  0  0  0  0  0  0
    2.4049   -1.3885    0.0000 S   0  0  0  0  0  0  0  0  0  0  0  0
    1.6905   -0.9760    0.0000 C   0  0  2  0  0  0  0  0  0  0  0  0
    0.8655   -0.9760    0.0000 C   0  0  2  0  0  0  0  0  0  0  0  0
    0.8655   -0.1510    0.0000 C   0  0  0  0  0  0  0  0  0  0  0  0
    2.4049    1.0865    0.0000 C   0  0  0  0  0  0  0  0  0  0  0  0
    3.1194    1.4990    0.0000 O   0  0  0  0  0  0  0  0  0  0  0  0
    1.6905    1.4990    0.0000 O   0  0  0  0  0  0  0  0  0  0  0  0
    3.8339    0.2615    0.0000 C   0  0  0  0  0  0  0  0  0  0  0  0
    4.5483   -0.1510    0.0000 S   0  0  0  0  0  0  0  0  0  0  0  0
    6.0165   -0.0740    0.0000 S   0  0  0  0  0  0  0  0  0  0  0  0
    5.2628    0.2615    0.0000 C   0  0  0  0  0  0  0  0  0  0  0  0
    5.3490    1.0820    0.0000 N   0  0  0  0  0  0  0  0  0  0  0  0
    6.1560    1.2535    0.0000 N   0  0  0  0  0  0  0  0  0  0  0  0
    6.5685    0.5391    0.0000 C   0  0  0  0  0  0  0  0  0  0  0  0
    0.2821    0.4324    0.0000 O   0  0  0  0  0  0  0  0  0  0  0  0
    0.2821   -1.5593    0.0000 N   0  0  0  0  0  0  0  0  0  0  0  0
    0.4956   -2.3562    0.0000 C   0  0  0  0  0  0  0  0  0  0  0  0
    1.2925   -2.5698    0.0000 O   0  0  0  0  0  0  0  0  0  0  0  0
   -0.0877   -2.9396    0.0000 C   0  0  0  0  0  0  0  0  0  0  0  0
   -0.8846   -2.7261    0.0000 O   0  0  0  0  0  0  0  0  0  0  0  0
    0.8528   -4.8560    0.0000 S   0  0  0  0  0  0  0  0  0  0  0  0
    0.0559   -5.0695    0.0000 C   0  0  0  0  0  0  0  0  0  0  0  0
   -0.3934   -4.3776    0.0000 N   0  0  0  0  0  0  0  0  0  0  0  0
    0.1258   -3.7365    0.0000 C   0  0  0  0  0  0  0  0  0  0  0  0
    0.8960   -4.0321    0.0000 C   0  0  0  0  0  0  0  0  0  0  0  0
   -0.2397   -5.8397    0.0000 N   0  0  0  0  0  0  0  0  0  0  0  0
  1  2  1  0  0  0  0
  2  3  2  0  0  0  0
  3  4  1  0  0  0  0
  4  5  1  0  0  0  0
  6  5  1  0  0  0  0
  6  1  1  6  0  0  0
  6  7  1  0  0  0  0
  7  8  1  0  0  0  0
  1  8  1  0  0  0  0
  9 10  1  0  0  0  0
  9 11  2  0  0  0  0
  2  9  1  0  0  0  0
 14 15  1  0  0  0  0
 15 16  2  0  0  0  0
 16 17  1  0  0  0  0
 17 18  2  0  0  0  0
 14 18  1  0  0  0  0
 13 15  1  0  0  0  0
 12 13  1  0  0  0  0
  3 12  1  0  0  0  0
  8 19  2  0  0  0  0
 21 22  2  0  0  0  0
 21 23  1  0  0  0  0
 23 24  1  0  0  0  0
 25 26  1  0  0  0  0
 26 27  2  0  0  0  0
 27 28  1  0  0  0  0
 28 29  2  0  0  0  0
 25 29  1  0  0  0  0
 26 30  1  0  0  0  0
 23 28  1  0  0  0  0
 20 21  1  0  0  0  0
  7 20  1  1  0  0  0
M  END
>  <type>
systematic

$$$$
(3S)-9-Fluoro-2,3-dihydro-3-methyl-10-(4-methyl-1-piperazinyl)-7-oxo-7H-pyrido[1,2,3- de]-1,4-benzoxazine-6-carboxylic acid2-(4-carboxyphenyl)hydrazide
  Mrv2401 11032420402D          

 36 40  0  0  1  0            999 V2000
    0.7145   -0.4125    0.0000 C   0  0  0  0  0  0  0  0  0  0  0  0
    0.0000    0.0000    0.0000 O   0  0  0  0  0  0  0  0  0  0  0  0
   -0.7145   -0.4125    0.0000 C   0  0  0  0  0  0  0  0  0  0  0  0
   -0.7145   -1.2375    0.0000 C   0  0  1  0  0  0  0  0  0  0  0  0
    2.1434   -1.2375    0.0000 C   0  0  0  0  0  0  0  0  0  0  0  0
    2.1434   -0.4125    0.0000 C   0  0  0  0  0  0  0  0  0  0  0  0
    1.4289    0.0000    0.0000 C   0  0  0  0  0  0  0  0  0  0  0  0
    0.0000   -1.6500    0.0000 N   0  0  0  0  0  0  0  0  0  0  0  0
    0.7145   -1.2375    0.0000 C   0  0  0  0  0  0  0  0  0  0  0  0
    1.4289   -1.6500    0.0000 C   0  0  0  0  0  0  0  0  0  0  0  0
    1.4289   -2.4750    0.0000 C   0  0  0  0  0  0  0  0  0  0  0  0
    0.7145   -2.8875    0.0000 C   0  0  0  0  0  0  0  0  0  0  0  0
    0.0000   -2.4750    0.0000 C   0  0  0  0  0  0  0  0  0  0  0  0
    0.7145   -3.7125    0.0000 C   0  0  0  0  0  0  0  0  0  0  0  0
    1.4289   -4.1250    0.0000 O   0  0  0  0  0  0  0  0  0  0  0  0
    0.0000   -4.9500    0.0000 N   0  0  0  0  0  0  0  0  0  0  0  0
    0.0000   -4.1250    0.0000 N   0  0  0  0  0  0  0  0  0  0  0  0
   -0.7145   -5.3625    0.0000 C   0  0  0  0  0  0  0  0  0  0  0  0
   -0.7145   -6.1875    0.0000 C   0  0  0  0  0  0  0  0  0  0  0  0
   -1.4289   -6.6000    0.0000 C   0  0  0  0  0  0  0  0  0  0  0  0
   -2.1434   -6.1875    0.0000 C   0  0  0  0  0  0  0  0  0  0  0  0
   -2.1434   -5.3625    0.0000 C   0  0  0  0  0  0  0  0  0  0  0  0
   -1.4289   -4.9500    0.0000 C   0  0  0  0  0  0  0  0  0  0  0  0
   -2.8579   -6.6000    0.0000 C   0  0  0  0  0  0  0  0  0  0  0  0
   -3.5724   -6.1875    0.0000 O   0  0  0  0  0  0  0  0  0  0  0  0
   -2.8579   -7.4250    0.0000 O   0  0  0  0  0  0  0  0  0  0  0  0
    2.1434   -2.8875    0.0000 O   0  0  0  0  0  0  0  0  0  0  0  0
    0.7145    1.2375    0.0000 C   0  0  0  0  0  0  0  0  0  0  0  0
    0.7145    2.0625    0.0000 C   0  0  0  0  0  0  0  0  0  0  0  0
    1.4289    2.4750    0.0000 N   0  0  0  0  0  0  0  0  0  0  0  0
    2.1434    2.0625    0.0000 C   0  0  0  0  0  0  0  0  0  0  0  0
    2.1434    1.2375    0.0000 C   0  0  0  0  0  0  0  0  0  0  0  0
    1.4289    0.8250    0.0000 N   0  0  0  0  0  0  0  0  0  0  0  0
    1.4289    3.3000    0.0000 C   0  0  0  0  0  0  0  0  0  0  0  0
   -1.4289   -1.6500    0.0000 C   0  0  0  0  0  0  0  0  0  0  0  0
    2.8579   -0.0000    0.0000 F   0  0  0  0  0  0  0  0  0  0  0  0
  1  2  1  0  0  0  0
  2  3  1  0  0  0  0
  4  3  1  0  0  0  0
  4  8  1  0  0  0  0
  1  9  1  0  0  0  0
 10  5  1  0  0  0  0
  5  6  2  0  0  0  0
  6  7  1  0  0  0  0
  1  7  2  0  0  0  0
  8  9  1  0  0  0  0
  9 10  2  0  0  0  0
 10 11  1  0  0  0  0
 11 12  1  0  0  0  0
 12 13  2  0  0  0  0
  8 13  1  0  0  0  0
 14 15  2  0  0  0  0
 12 14  1  0  0  0  0
 16 17  1  0  0  0  0
 18 19  2  0  0  0  0
 19 20  1  0  0  0  0
 20 21  2  0  0  0  0
 21 22  1  0  0  0  0
 22 23  2  0  0  0  0
 18 23  1  0  0  0  0
 24 25  1  0  0  0  0
 24 26  2  0  0  0  0
 21 24  1  0  0  0  0
 16 18  1  0  0  0  0
 14 17  1  0  0  0  0
 11 27  2  0  0  0  0
 28 29  1  0  0  0  0
 29 30  1  0  0  0  0
 30 31  1  0  0  0  0
 31 32  1  0  0  0  0
 32 33  1  0  0  0  0
 28 33  1  0  0  0  0
 30 34  1  0  0  0  0
  7 33  1  0  0  0  0
  4 35  1  1  0  0  0
  6 36  1  0  0  0  0
M  END
>  <type>
systematic

$$$$
5-Thia-1-azabicyclo[4.2.0]oct-2-ene-2-carboxylic acid, 7-[(hydroxyphenylacetyl)amino]-8-oxo-3-[(tetrazolo[1,5- b ]pyridazin-6-ylthio)methyl]-, [6 R-[6α,7β(R*)]]-
  Mrv2401 11032420412D          

  0  0  0     0  0            999 V3000
M  V30 BEGIN CTAB
M  V30 COUNTS 34 38 0 0 1
M  V30 BEGIN ATOM
M  V30 1 N 6.6684 -5.39 0 0
M  V30 2 C 5.3347 -4.62 0 0
M  V30 3 C 5.3347 -3.08 0 0
M  V30 4 C 6.6684 -2.31 0 0
M  V30 5 S 8.0021 -3.08 0 0
M  V30 6 C 8.0021 -4.62 0 0 CFG=2
M  V30 7 C 8.7721 -5.9537 0 0 CFG=1
M  V30 8 C 7.4384 -6.7237 0 0
M  V30 9 C 4.001 -5.39 0 0
M  V30 10 O 2.6674 -4.62 0 0
M  V30 11 O 4.001 -6.93 0 0
M  V30 12 C 4.001 -2.31 0 0
M  V30 13 S 4.001 -0.77 0 0
M  V30 14 N 1.3337 -0.77 0 0
M  V30 15 C 1.3337 2.31 0 0
M  V30 16 C 2.6674 1.54 0 0
M  V30 17 C 2.6674 0 0 0
M  V30 18 N -0 -0 0 0
M  V30 19 N -1.4646 -0.4759 0 0
M  V30 20 N -2.3698 0.77 0 0
M  V30 21 N -1.4646 2.0159 0 0
M  V30 22 C 0 1.54 0 0
M  V30 23 O 7.0398 -8.2112 0 0
M  V30 24 N 10.2596 -6.3523 0 0
M  V30 25 C 10.6582 -7.8398 0 0
M  V30 26 O 9.5692 -8.9287 0 0
M  V30 27 C 12.1457 -8.2384 0 0
M  V30 28 C 12.5443 -9.7259 0 0
M  V30 29 C 14.0318 -10.1245 0 0
M  V30 30 C 14.4304 -11.612 0 0
M  V30 31 C 13.3415 -12.7009 0 0
M  V30 32 C 11.8539 -12.3024 0 0
M  V30 33 C 11.4553 -10.8148 0 0
M  V30 34 O 13.2347 -7.1494 0 0
M  V30 END ATOM
M  V30 BEGIN BOND
M  V30 1 1 1 2
M  V30 2 2 2 3
M  V30 3 1 3 4
M  V30 4 1 4 5
M  V30 5 1 6 5
M  V30 6 1 6 1 CFG=3
M  V30 7 1 6 7
M  V30 8 1 7 8
M  V30 9 1 1 8
M  V30 10 1 9 10
M  V30 11 2 9 11
M  V30 12 1 2 9
M  V30 13 1 14 18
M  V30 14 1 22 15
M  V30 15 2 15 16
M  V30 16 1 16 17
M  V30 17 2 14 17
M  V30 18 1 18 19
M  V30 19 2 19 20
M  V30 20 1 20 21
M  V30 21 2 21 22
M  V30 22 1 18 22
M  V30 23 1 13 17
M  V30 24 1 12 13
M  V30 25 1 3 12
M  V30 26 2 8 23
M  V30 27 2 25 26
M  V30 28 1 25 27
M  V30 29 2 28 29
M  V30 30 1 29 30
M  V30 31 2 30 31
M  V30 32 1 31 32
M  V30 33 2 32 33
M  V30 34 1 28 33
M  V30 35 1 27 28
M  V30 36 1 27 34
M  V30 37 1 24 25
M  V30 38 1 7 24 CFG=3
M  V30 END BOND
M  V30 BEGIN COLLECTION
M  V30 MDLV30/STEREL1 ATOMS=(1 7)
M  V30 END COLLECTION
M  V30 END CTAB
M  END
>  <type>
systematic

$$$$
5-Thia-1-azabicyclo[4.2.0]oct-2-ene-2-carboxylic acid, 7-[[(3-amino-2,3-dihydro-2-imino-4-thiazolyl)hydroxyacetyl]amino]-3-[[(1-methyl-1H-tetrazol-5-yl)thio]methyl]-8-oxo-, [6 R-(6α,7β)]-
  Mrv2401 11032420422D          

 32 35  0  0  1  0            999 V2000
    1.6905   -0.1510    0.0000 N   0  0  0  0  0  0  0  0  0  0  0  0
    2.4049    0.2615    0.0000 C   0  0  0  0  0  0  0  0  0  0  0  0
    3.1194   -0.1510    0.0000 C   0  0  0  0  0  0  0  0  0  0  0  0
    3.1194   -0.9760    0.0000 C   0  0  0  0  0  0  0  0  0  0  0  0
    2.4049   -1.3885    0.0000 S   0  0  0  0  0  0  0  0  0  0  0  0
    1.6905   -0.9760    0.0000 C   0  0  2  0  0  0  0  0  0  0  0  0
    0.8655   -0.9760    0.0000 C   0  0  2  0  0  0  0  0  0  0  0  0
    0.8655   -0.1510    0.0000 C   0  0  0  0  0  0  0  0  0  0  0  0
    2.4049    1.0865    0.0000 C   0  0  0  0  0  0  0  0  0  0  0  0
    3.1194    1.4990    0.0000 O   0  0  0  0  0  0  0  0  0  0  0  0
    1.6905    1.4990    0.0000 O   0  0  0  0  0  0  0  0  0  0  0  0
    0.2821    0.4324    0.0000 O   0  0  0  0  0  0  0  0  0  0  0  0
    3.8339    0.2615    0.0000 C   0  0  0  0  0  0  0  0  0  0  0  0
    4.5483   -0.1510    0.0000 S   0  0  0  0  0  0  0  0  0  0  0  0
    5.3490    1.0820    0.0000 N   0  0  0  0  0  0  0  0  0  0  0  0
    6.1560    1.2535    0.0000 N   0  0  0  0  0  0  0  0  0  0  0  0
    6.5685    0.5391    0.0000 N   0  0  0  0  0  0  0  0  0  0  0  0
    6.0165   -0.0740    0.0000 N   0  0  0  0  0  0  0  0  0  0  0  0
    5.2628    0.2615    0.0000 C   0  0  0  0  0  0  0  0  0  0  0  0
    4.7360    1.6340    0.0000 C   0  0  0  0  0  0  0  0  0  0  0  0
    0.2821   -1.5593    0.0000 N   0  0  0  0  0  0  0  0  0  0  0  0
    0.4956   -2.3562    0.0000 C   0  0  0  0  0  0  0  0  0  0  0  0
    1.2925   -2.5698    0.0000 O   0  0  0  0  0  0  0  0  0  0  0  0
   -0.0877   -2.9396    0.0000 C   0  0  0  0  0  0  0  0  0  0  0  0
   -0.8846   -2.7261    0.0000 O   0  0  0  0  0  0  0  0  0  0  0  0
    0.8528   -4.8560    0.0000 S   0  0  0  0  0  0  0  0  0  0  0  0
    0.0559   -5.0695    0.0000 C   0  0  0  0  0  0  0  0  0  0  0  0
   -0.3934   -4.3776    0.0000 N   0  0  0  0  0  0  0  0  0  0  0  0
    0.1258   -3.7365    0.0000 C   0  0  0  0  0  0  0  0  0  0  0  0
    0.8960   -4.0321    0.0000 C   0  0  0  0  0  0  0  0  0  0  0  0
   -0.2397   -5.8397    0.0000 N   0  0  0  0  0  0  0  0  0  0  0  0
   -1.2173   -4.3345    0.0000 N   0  0  0  0  0  0  0  0  0  0  0  0
  1  2  1  0  0  0  0
  2  3  2  0  0  0  0
  3  4  1  0  0  0  0
  4  5  1  0  0  0  0
  6  5  1  0  0  0  0
  6  1  1  6  0  0  0
  6  7  1  0  0  0  0
  7  8  1  0  0  0  0
  1  8  1  0  0  0  0
  9 10  1  0  0  0  0
  9 11  2  0  0  0  0
  2  9  1  0  0  0  0
  8 12  2  0  0  0  0
 15 16  1  0  0  0  0
 16 17  2  0  0  0  0
 17 18  1  0  0  0  0
 18 19  2  0  0  0  0
 15 19  1  0  0  0  0
 15 20  1  0  0  0  0
 14 19  1  0  0  0  0
 13 14  1  0  0  0  0
  3 13  1  0  0  0  0
 22 23  2  0  0  0  0
 22 24  1  0  0  0  0
 24 25  1  0  0  0  0
 26 27  1  0  0  0  0
 27 28  1  0  0  0  0
 28 29  1  0  0  0  0
 29 30  2  0  0  0  0
 26 30  1  0  0  0  0
 27 31  2  0  0  0  0
 28 32  1  0  0  0  0
 24 29  1  0  0  0  0
 21 22  1  0  0  0  0
  7 21  1  1  0  0  0
M  END
>  <type>
systematic

$$$$
5-Thia-1-azabicyclo[4.2.0]oct-2-ene-2-carboxylic acid, 3-[[(4,5-dihydro-4-methyl-5-oxo-1H-1,2,4-triazol-3-yl)thio]methyl]-7-[(hydroxyphenylacetyl)amino]-8-oxo-, [6 R-(6α,7β)]-
  Mrv2401 11032420432D          

 32 35  0  0  1  0            999 V2000
    1.6905   -0.1510    0.0000 N   0  0  0  0  0  0  0  0  0  0  0  0
    2.4049    0.2615    0.0000 C   0  0  0  0  0  0  0  0  0  0  0  0
    3.1194   -0.1510    0.0000 C   0  0  0  0  0  0  0  0  0  0  0  0
    3.1194   -0.9760    0.0000 C   0  0  0  0  0  0  0  0  0  0  0  0
    2.4049   -1.3885    0.0000 S   0  0  0  0  0  0  0  0  0  0  0  0
    1.6905   -0.9760    0.0000 C   0  0  2  0  0  0  0  0  0  0  0  0
    0.8655   -0.9760    0.0000 C   0  0  2  0  0  0  0  0  0  0  0  0
    0.8655   -0.1510    0.0000 C   0  0  0  0  0  0  0  0  0  0  0  0
    2.4049    1.0865    0.0000 C   0  0  0  0  0  0  0  0  0  0  0  0
    3.1194    1.4990    0.0000 O   0  0  0  0  0  0  0  0  0  0  0  0
    1.6905    1.4990    0.0000 O   0  0  0  0  0  0  0  0  0  0  0  0
    0.2821    0.4324    0.0000 O   0  0  0  0  0  0  0  0  0  0  0  0
    0.2821   -1.5593    0.0000 N   0  0  0  0  0  0  0  0  0  0  0  0
   -0.5148   -1.3458    0.0000 C   0  0  0  0  0  0  0  0  0  0  0  0
   -0.7283   -0.5489    0.0000 O   0  0  0  0  0  0  0  0  0  0  0  0
   -1.0982   -1.9292    0.0000 C   0  0  0  0  0  0  0  0  0  0  0  0
   -1.8950   -1.7157    0.0000 C   0  0  0  0  0  0  0  0  0  0  0  0
   -2.4784   -2.2990    0.0000 C   0  0  0  0  0  0  0  0  0  0  0  0
   -3.2753   -2.0855    0.0000 C   0  0  0  0  0  0  0  0  0  0  0  0
   -3.4888   -1.2886    0.0000 C   0  0  0  0  0  0  0  0  0  0  0  0
   -2.9055   -0.7052    0.0000 C   0  0  0  0  0  0  0  0  0  0  0  0
   -2.1086   -0.9188    0.0000 C   0  0  0  0  0  0  0  0  0  0  0  0
   -0.8846   -2.7261    0.0000 O   0  0  0  0  0  0  0  0  0  0  0  0
    3.8339    0.2615    0.0000 C   0  0  0  0  0  0  0  0  0  0  0  0
    3.8339    1.0865    0.0000 S   0  0  0  0  0  0  0  0  0  0  0  0
    5.8540    1.7766    0.0000 N   0  0  0  0  0  0  0  0  0  0  0  0
    5.3020    1.1635    0.0000 N   0  0  0  0  0  0  0  0  0  0  0  0
    4.5483    1.4990    0.0000 C   0  0  0  0  0  0  0  0  0  0  0  0
    4.6346    2.3195    0.0000 N   0  0  0  0  0  0  0  0  0  0  0  0
    5.4415    2.4910    0.0000 C   0  0  0  0  0  0  0  0  0  0  0  0
    5.7771    3.2447    0.0000 O   0  0  0  0  0  0  0  0  0  0  0  0
    4.0215    2.8715    0.0000 C   0  0  0  0  0  0  0  0  0  0  0  0
  1  2  1  0  0  0  0
  2  3  2  0  0  0  0
  3  4  1  0  0  0  0
  4  5  1  0  0  0  0
  6  5  1  0  0  0  0
  6  1  1  6  0  0  0
  6  7  1  0  0  0  0
  7  8  1  0  0  0  0
  1  8  1  0  0  0  0
  9 10  1  0  0  0  0
  9 11  2  0  0  0  0
  2  9  1  0  0  0  0
  8 12  2  0  0  0  0
 14 15  2  0  0  0  0
 14 16  1  0  0  0  0
 17 18  2  0  0  0  0
 18 19  1  0  0  0  0
 19 20  2  0  0  0  0
 20 21  1  0  0  0  0
 21 22  2  0  0  0  0
 17 22  1  0  0  0  0
 16 17  1  0  0  0  0
 16 23  1  0  0  0  0
 13 14  1  0  0  0  0
  7 13  1  1  0  0  0
 26 27  1  0  0  0  0
 27 28  2  0  0  0  0
 28 29  1  0  0  0  0
 29 30  1  0  0  0  0
 26 30  1  0  0  0  0
 30 31  2  0  0  0  0
 29 32  1  0  0  0  0
 25 28  1  0  0  0  0
 24 25  1  0  0  0  0
  3 24  1  0  0  0  0
M  END
>  <type>
systematic

$$$$
5-Thia-1-azabicyclo[4.2.0]oct-2-ene-2-carboxylic acid, 7-[[(2-amino-4-thiazolyl)oxoacetyl]amino]-8-oxo-3-[(1H-1,2,3-triazol-4-ylthio)methyl]-, (6R-trans)-
  Mrv2401 11032420432D          

 30 33  0  0  1  0            999 V2000
    1.6905   -0.1510    0.0000 N   0  0  0  0  0  0  0  0  0  0  0  0
    2.4049    0.2615    0.0000 C   0  0  0  0  0  0  0  0  0  0  0  0
    3.1194   -0.1510    0.0000 C   0  0  0  0  0  0  0  0  0  0  0  0
    3.1194   -0.9760    0.0000 C   0  0  0  0  0  0  0  0  0  0  0  0
    2.4049   -1.3885    0.0000 S   0  0  0  0  0  0  0  0  0  0  0  0
    1.6905   -0.9760    0.0000 C   0  0  2  0  0  0  0  0  0  0  0  0
    0.8655   -0.9760    0.0000 C   0  0  0  0  0  0  0  0  0  0  0  0
    0.8655   -0.1510    0.0000 C   0  0  0  0  0  0  0  0  0  0  0  0
    2.4049    1.0865    0.0000 C   0  0  0  0  0  0  0  0  0  0  0  0
    3.1194    1.4990    0.0000 O   0  0  0  0  0  0  0  0  0  0  0  0
    1.6905    1.4990    0.0000 O   0  0  0  0  0  0  0  0  0  0  0  0
    3.8339    0.2615    0.0000 C   0  0  0  0  0  0  0  0  0  0  0  0
    4.5483   -0.1510    0.0000 S   0  0  0  0  0  0  0  0  0  0  0  0
    6.1560    1.2535    0.0000 N   0  0  0  0  0  0  0  0  0  0  0  0
    6.5685    0.5391    0.0000 N   0  0  0  0  0  0  0  0  0  0  0  0
    6.0165   -0.0740    0.0000 N   0  0  0  0  0  0  0  0  0  0  0  0
    5.2628    0.2615    0.0000 C   0  0  0  0  0  0  0  0  0  0  0  0
    5.3490    1.0820    0.0000 C   0  0  0  0  0  0  0  0  0  0  0  0
    0.2821    0.4324    0.0000 O   0  0  0  0  0  0  0  0  0  0  0  0
    0.2821   -1.5593    0.0000 N   0  0  0  0  0  0  0  0  0  0  0  0
    0.4956   -2.3562    0.0000 C   0  0  0  0  0  0  0  0  0  0  0  0
    1.2925   -2.5698    0.0000 O   0  0  0  0  0  0  0  0  0  0  0  0
   -0.0877   -2.9396    0.0000 C   0  0  0  0  0  0  0  0  0  0  0  0
   -0.8846   -2.7261    0.0000 O   0  0  0  0  0  0  0  0  0  0  0  0
    0.8528   -4.8560    0.0000 S   0  0  0  0  0  0  0  0  0  0  0  0
    0.0559   -5.0695    0.0000 C   0  0  0  0  0  0  0  0  0  0  0  0
   -0.3934   -4.3776    0.0000 N   0  0  0  0  0  0  0  0  0  0  0  0
    0.1258   -3.7365    0.0000 C   0  0  0  0  0  0  0  0  0  0  0  0
    0.8960   -4.0321    0.0000 C   0  0  0  0  0  0  0  0  0  0  0  0
   -0.2397   -5.8397    0.0000 N   0  0  0  0  0  0  0  0  0  0  0  0
  1  2  1  0  0  0  0
  2  3  2  0  0  0  0
  3  4  1  0  0  0  0
  4  5  1  0  0  0  0
  6  5  1  0  0  0  0
  6  1  1  6  0  0  0
  6  7  1  0  0  0  0
  7  8  1  0  0  0  0
  1  8  1  0  0  0  0
  9 10  1  0  0  0  0
  9 11  2  0  0  0  0
  2  9  1  0  0  0  0
 14 15  1  0  0  0  0
 15 16  2  0  0  0  0
 16 17  1  0  0  0  0
 17 18  2  0  0  0  0
 14 18  1  0  0  0  0
 13 17  1  0  0  0  0
 12 13  1  0  0  0  0
  3 12  1  0  0  0  0
  8 19  2  0  0  0  0
 21 22  2  0  0  0  0
 21 23  1  0  0  0  0
 23 24  2  0  0  0  0
 25 26  1  0  0  0  0
 26 27  2  0  0  0  0
 27 28  1  0  0  0  0
 28 29  2  0  0  0  0
 25 29  1  0  0  0  0
 26 30  1  0  0  0  0
 23 28  1  0  0  0  0
 20 21  1  0  0  0  0
  7 20  1  0  0  0  0
M  END
>  <type>
systematic

$$$$
(3Z)-2,3-Dihydro-2-oxo-3-[2-[[1,2,3,4-tetrahydro-4-(3-hydroxyphenyl)-6-methyl-2-oxo-5-pyrimidinyl]carbonyl]hydrazinylidene]-1H-indole-7-carboxylic acid
  Mrv2401 11032420442D          

 32 35  0  0  0  0            999 V2000
    0.6538   -0.6979    0.0000 C   0  0  0  0  0  0  0  0  0  0  0  0
    1.1387   -0.0305    0.0000 C   0  0  0  0  0  0  0  0  0  0  0  0
    1.9233   -0.2854    0.0000 C   0  0  0  0  0  0  0  0  0  0  0  0
    2.6378    0.1271    0.0000 C   0  0  0  0  0  0  0  0  0  0  0  0
    3.3523   -0.2854    0.0000 C   0  0  0  0  0  0  0  0  0  0  0  0
    3.3523   -1.1104    0.0000 C   0  0  0  0  0  0  0  0  0  0  0  0
    2.6378   -1.5229    0.0000 C   0  0  0  0  0  0  0  0  0  0  0  0
    1.9233   -1.1104    0.0000 C   0  0  0  0  0  0  0  0  0  0  0  0
    1.1387   -1.3654    0.0000 N   0  0  0  0  0  0  0  0  0  0  0  0
    2.6378   -2.3479    0.0000 C   0  0  0  0  0  0  0  0  0  0  0  0
    3.3523   -2.7604    0.0000 O   0  0  0  0  0  0  0  0  0  0  0  0
    1.9233   -2.7604    0.0000 O   0  0  0  0  0  0  0  0  0  0  0  0
    0.8838    0.7541    0.0000 N   0  0  0  0  0  0  0  0  0  0  0  0
    0.0768    0.9256    0.0000 N   0  0  0  0  0  0  0  0  0  0  0  0
   -0.1781    1.7103    0.0000 C   0  0  0  0  0  0  0  0  0  0  0  0
    0.3739    2.3234    0.0000 O   0  0  0  0  0  0  0  0  0  0  0  0
   -0.9851    1.8818    0.0000 C   0  0  0  0  0  0  0  0  0  0  0  0
   -1.2400    2.6664    0.0000 C   0  0  0  0  0  0  0  0  0  0  0  0
   -2.0470    2.8379    0.0000 N   0  0  0  0  0  0  0  0  0  0  0  0
   -2.5990    2.2248    0.0000 C   0  0  0  0  0  0  0  0  0  0  0  0
   -2.3441    1.4402    0.0000 N   0  0  0  0  0  0  0  0  0  0  0  0
   -1.5371    1.2687    0.0000 C   0  0  0  0  0  0  0  0  0  0  0  0
   -3.4060    2.3964    0.0000 O   0  0  0  0  0  0  0  0  0  0  0  0
   -1.2822    0.4841    0.0000 C   0  0  0  0  0  0  0  0  0  0  0  0
   -0.6880    3.2795    0.0000 C   0  0  0  0  0  0  0  0  0  0  0  0
    0.1190    3.1080    0.0000 C   0  0  0  0  0  0  0  0  0  0  0  0
    0.6710    3.7211    0.0000 C   0  0  0  0  0  0  0  0  0  0  0  0
    0.4161    4.5057    0.0000 C   0  0  0  0  0  0  0  0  0  0  0  0
   -0.3909    4.6772    0.0000 C   0  0  0  0  0  0  0  0  0  0  0  0
   -0.9429    4.0641    0.0000 C   0  0  0  0  0  0  0  0  0  0  0  0
    1.4780    3.5496    0.0000 O   0  0  0  0  0  0  0  0  0  0  0  0
   -0.1712   -0.6979    0.0000 O   0  0  0  0  0  0  0  0  0  0  0  0
  1  2  1  0  0  0  0
  2  3  1  0  0  0  0
  3  4  2  0  0  0  0
  4  5  1  0  0  0  0
  5  6  2  0  0  0  0
  6  7  1  0  0  0  0
  7  8  2  0  0  0  0
  3  8  1  0  0  0  0
  8  9  1  0  0  0  0
  1  9  1  0  0  0  0
 10 11  1  0  0  0  0
 10 12  2  0  0  0  0
  7 10  1  0  0  0  0
 13 14  1  0  0  0  0
 15 16  2  0  0  0  0
 17 18  1  0  0  0  0
 18 19  1  0  0  0  0
 19 20  1  0  0  0  0
 20 21  1  0  0  0  0
 21 22  1  0  0  0  0
 17 22  2  0  0  0  0
 20 23  2  0  0  0  0
 22 24  1  0  0  0  0
 25 26  2  0  0  0  0
 26 27  1  0  0  0  0
 27 28  2  0  0  0  0
 28 29  1  0  0  0  0
 29 30  2  0  0  0  0
 25 30  1  0  0  0  0
 27 31  1  0  0  0  0
 18 25  1  0  0  0  0
 15 17  1  0  0  0  0
 14 15  1  0  0  0  0
  2 13  2  0  0  0  0
  1 32  2  0  0  0  0
M  END
>  <type>
systematic

$$$$
5-Thia-1-azabicyclo[4.2.0]oct-2-ene-2-carboxylic acid, 7-[[(2-amino-4-thiazolyl)oxoacetyl]amino]-8-oxo-3-[[(1H-1,2,3-triazol-4-ylthio)methyl]thio]-, (6R-trans)-
  Mrv2401 11032420452D          

 31 34  0  0  1  0            999 V2000
    1.6905   -0.1510    0.0000 N   0  0  0  0  0  0  0  0  0  0  0  0
    2.4049    0.2615    0.0000 C   0  0  0  0  0  0  0  0  0  0  0  0
    3.1194   -0.1510    0.0000 C   0  0  0  0  0  0  0  0  0  0  0  0
    3.1194   -0.9760    0.0000 C   0  0  0  0  0  0  0  0  0  0  0  0
    2.4049   -1.3885    0.0000 S   0  0  0  0  0  0  0  0  0  0  0  0
    1.6905   -0.9760    0.0000 C   0  0  2  0  0  0  0  0  0  0  0  0
    0.8655   -0.9760    0.0000 C   0  0  0  0  0  0  0  0  0  0  0  0
    0.8655   -0.1510    0.0000 C   0  0  0  0  0  0  0  0  0  0  0  0
    2.4049    1.0865    0.0000 C   0  0  0  0  0  0  0  0  0  0  0  0
    3.1194    1.4990    0.0000 O   0  0  0  0  0  0  0  0  0  0  0  0
    1.6905    1.4990    0.0000 O   0  0  0  0  0  0  0  0  0  0  0  0
    3.8339    0.2615    0.0000 S   0  0  0  0  0  0  0  0  0  0  0  0
    4.5483   -0.1510    0.0000 C   0  0  0  0  0  0  0  0  0  0  0  0
    5.2628    0.2615    0.0000 S   0  0  0  0  0  0  0  0  0  0  0  0
    7.2830   -0.4285    0.0000 N   0  0  0  0  0  0  0  0  0  0  0  0
    6.8705   -1.1430    0.0000 N   0  0  0  0  0  0  0  0  0  0  0  0
    6.0635   -0.9715    0.0000 N   0  0  0  0  0  0  0  0  0  0  0  0
    5.9773   -0.1510    0.0000 C   0  0  0  0  0  0  0  0  0  0  0  0
    6.7310    0.1846    0.0000 C   0  0  0  0  0  0  0  0  0  0  0  0
    0.2821    0.4324    0.0000 O   0  0  0  0  0  0  0  0  0  0  0  0
    0.2821   -1.5593    0.0000 N   0  0  0  0  0  0  0  0  0  0  0  0
    0.4956   -2.3562    0.0000 C   0  0  0  0  0  0  0  0  0  0  0  0
    1.2925   -2.5698    0.0000 O   0  0  0  0  0  0  0  0  0  0  0  0
   -0.0877   -2.9396    0.0000 C   0  0  0  0  0  0  0  0  0  0  0  0
   -0.8846   -2.7261    0.0000 O   0  0  0  0  0  0  0  0  0  0  0  0
    0.8528   -4.8560    0.0000 S   0  0  0  0  0  0  0  0  0  0  0  0
    0.0559   -5.0695    0.0000 C   0  0  0  0  0  0  0  0  0  0  0  0
   -0.3934   -4.3776    0.0000 N   0  0  0  0  0  0  0  0  0  0  0  0
    0.1258   -3.7365    0.0000 C   0  0  0  0  0  0  0  0  0  0  0  0
    0.8960   -4.0321    0.0000 C   0  0  0  0  0  0  0  0  0  0  0  0
   -0.2397   -5.8397    0.0000 N   0  0  0  0  0  0  0  0  0  0  0  0
  1  2  1  0  0  0  0
  2  3  2  0  0  0  0
  3  4  1  0  0  0  0
  4  5  1  0  0  0  0
  6  5  1  0  0  0  0
  6  1  1  6  0  0  0
  6  7  1  0  0  0  0
  7  8  1  0  0  0  0
  1  8  1  0  0  0  0
  9 10  1  0  0  0  0
  9 11  2  0  0  0  0
  2  9  1  0  0  0  0
 15 16  1  0  0  0  0
 16 17  2  0  0  0  0
 17 18  1  0  0  0  0
 18 19  2  0  0  0  0
 15 19  1  0  0  0  0
 14 18  1  0  0  0  0
 13 14  1  0  0  0  0
 12 13  1  0  0  0  0
  3 12  1  0  0  0  0
  8 20  2  0  0  0  0
 22 23  2  0  0  0  0
 22 24  1  0  0  0  0
 24 25  2  0  0  0  0
 26 27  1  0  0  0  0
 27 28  2  0  0  0  0
 28 29  1  0  0  0  0
 29 30  2  0  0  0  0
 26 30  1  0  0  0  0
 27 31  1  0  0  0  0
 24 29  1  0  0  0  0
 21 22  1  0  0  0  0
  7 21  1  0  0  0  0
M  END
>  <type>
systematic

$$$$
5-Thia-1-azabicyclo[4.2.0]oct-2-ene-2-carboxylic acid, 7-[[(4-amino-5-thiazolyl)oxoacetyl]amino]-3-[[(1-methyl-1H-tetrazol-5-yl)thio]methyl]-8-oxo-, (6R-trans)-
  Mrv2401 11032420452D          

 31 34  0  0  1  0            999 V2000
    1.6905   -0.1510    0.0000 N   0  0  0  0  0  0  0  0  0  0  0  0
    2.4049    0.2615    0.0000 C   0  0  0  0  0  0  0  0  0  0  0  0
    3.1194   -0.1510    0.0000 C   0  0  0  0  0  0  0  0  0  0  0  0
    3.1194   -0.9760    0.0000 C   0  0  0  0  0  0  0  0  0  0  0  0
    2.4049   -1.3885    0.0000 S   0  0  0  0  0  0  0  0  0  0  0  0
    1.6905   -0.9760    0.0000 C   0  0  2  0  0  0  0  0  0  0  0  0
    0.8655   -0.9760    0.0000 C   0  0  0  0  0  0  0  0  0  0  0  0
    0.8655   -0.1510    0.0000 C   0  0  0  0  0  0  0  0  0  0  0  0
    2.4049    1.0865    0.0000 C   0  0  0  0  0  0  0  0  0  0  0  0
    3.1194    1.4990    0.0000 O   0  0  0  0  0  0  0  0  0  0  0  0
    1.6905    1.4990    0.0000 O   0  0  0  0  0  0  0  0  0  0  0  0
    0.2821    0.4324    0.0000 O   0  0  0  0  0  0  0  0  0  0  0  0
    3.8339    0.2615    0.0000 C   0  0  0  0  0  0  0  0  0  0  0  0
    4.5483   -0.1510    0.0000 S   0  0  0  0  0  0  0  0  0  0  0  0
    5.3490    1.0820    0.0000 N   0  0  0  0  0  0  0  0  0  0  0  0
    6.1560    1.2535    0.0000 N   0  0  0  0  0  0  0  0  0  0  0  0
    6.5685    0.5391    0.0000 N   0  0  0  0  0  0  0  0  0  0  0  0
    6.0165   -0.0740    0.0000 N   0  0  0  0  0  0  0  0  0  0  0  0
    5.2628    0.2615    0.0000 C   0  0  0  0  0  0  0  0  0  0  0  0
    4.7360    1.6340    0.0000 C   0  0  0  0  0  0  0  0  0  0  0  0
    0.2821   -1.5593    0.0000 N   0  0  0  0  0  0  0  0  0  0  0  0
   -0.5148   -1.3458    0.0000 C   0  0  0  0  0  0  0  0  0  0  0  0
   -0.7283   -0.5489    0.0000 O   0  0  0  0  0  0  0  0  0  0  0  0
   -1.0982   -1.9292    0.0000 C   0  0  0  0  0  0  0  0  0  0  0  0
   -0.8846   -2.7261    0.0000 O   0  0  0  0  0  0  0  0  0  0  0  0
   -2.5362   -2.2348    0.0000 S   0  0  0  0  0  0  0  0  0  0  0  0
   -3.2281   -1.7855    0.0000 C   0  0  0  0  0  0  0  0  0  0  0  0
   -3.0146   -0.9886    0.0000 N   0  0  0  0  0  0  0  0  0  0  0  0
   -2.1907   -0.9455    0.0000 C   0  0  0  0  0  0  0  0  0  0  0  0
   -1.8950   -1.7157    0.0000 C   0  0  0  0  0  0  0  0  0  0  0  0
   -1.7414   -0.2536    0.0000 N   0  0  0  0  0  0  0  0  0  0  0  0
  1  2  1  0  0  0  0
  2  3  2  0  0  0  0
  3  4  1  0  0  0  0
  4  5  1  0  0  0  0
  6  5  1  0  0  0  0
  6  1  1  6  0  0  0
  6  7  1  0  0  0  0
  7  8  1  0  0  0  0
  1  8  1  0  0  0  0
  9 10  1  0  0  0  0
  9 11  2  0  0  0  0
  2  9  1  0  0  0  0
  8 12  2  0  0  0  0
 15 16  1  0  0  0  0
 16 17  2  0  0  0  0
 17 18  1  0  0  0  0
 18 19  2  0  0  0  0
 15 19  1  0  0  0  0
 15 20  1  0  0  0  0
 14 19  1  0  0  0  0
 13 14  1  0  0  0  0
  3 13  1  0  0  0  0
 22 23  2  0  0  0  0
 22 24  1  0  0  0  0
 24 25  2  0  0  0  0
 26 27  1  0  0  0  0
 27 28  2  0  0  0  0
 28 29  1  0  0  0  0
 29 30  2  0  0  0  0
 26 30  1  0  0  0  0
 29 31  1  0  0  0  0
 24 30  1  0  0  0  0
 21 22  1  0  0  0  0
  7 21  1  0  0  0  0
M  END
>  <type>
systematic

$$$$
5-Thia-1-azabicyclo[4.2.0]oct-2-ene-2-carboxylic acid, 7-[[(2-amino-4-thiazolyl)oxoacetyl]amino]-8-oxo-3-[(1,2,3-thiadiazol-5-ylthio)methyl]-, (6R-trans)-
  Mrv2401 11032420462D          

 30 33  0  0  1  0            999 V2000
    1.6905   -0.1510    0.0000 N   0  0  0  0  0  0  0  0  0  0  0  0
    2.4049    0.2615    0.0000 C   0  0  0  0  0  0  0  0  0  0  0  0
    3.1194   -0.1510    0.0000 C   0  0  0  0  0  0  0  0  0  0  0  0
    3.1194   -0.9760    0.0000 C   0  0  0  0  0  0  0  0  0  0  0  0
    2.4049   -1.3885    0.0000 S   0  0  0  0  0  0  0  0  0  0  0  0
    1.6905   -0.9760    0.0000 C   0  0  2  0  0  0  0  0  0  0  0  0
    0.8655   -0.9760    0.0000 C   0  0  0  0  0  0  0  0  0  0  0  0
    0.8655   -0.1510    0.0000 C   0  0  0  0  0  0  0  0  0  0  0  0
    2.4049    1.0865    0.0000 C   0  0  0  0  0  0  0  0  0  0  0  0
    3.1194    1.4990    0.0000 O   0  0  0  0  0  0  0  0  0  0  0  0
    1.6905    1.4990    0.0000 O   0  0  0  0  0  0  0  0  0  0  0  0
    3.8339    0.2615    0.0000 C   0  0  0  0  0  0  0  0  0  0  0  0
    4.5483   -0.1510    0.0000 S   0  0  0  0  0  0  0  0  0  0  0  0
    5.3490    1.0820    0.0000 S   0  0  0  0  0  0  0  0  0  0  0  0
    6.1560    1.2535    0.0000 N   0  0  0  0  0  0  0  0  0  0  0  0
    6.5685    0.5391    0.0000 N   0  0  0  0  0  0  0  0  0  0  0  0
    6.0165   -0.0740    0.0000 C   0  0  0  0  0  0  0  0  0  0  0  0
    5.2628    0.2615    0.0000 C   0  0  0  0  0  0  0  0  0  0  0  0
    0.2821    0.4324    0.0000 O   0  0  0  0  0  0  0  0  0  0  0  0
    0.2821   -1.5593    0.0000 N   0  0  0  0  0  0  0  0  0  0  0  0
    0.4956   -2.3562    0.0000 C   0  0  0  0  0  0  0  0  0  0  0  0
    1.2925   -2.5698    0.0000 O   0  0  0  0  0  0  0  0  0  0  0  0
   -0.0877   -2.9396    0.0000 C   0  0  0  0  0  0  0  0  0  0  0  0
   -0.8846   -2.7261    0.0000 O   0  0  0  0  0  0  0  0  0  0  0  0
    0.8528   -4.8560    0.0000 S   0  0  0  0  0  0  0  0  0  0  0  0
    0.0559   -5.0695    0.0000 C   0  0  0  0  0  0  0  0  0  0  0  0
   -0.3934   -4.3776    0.0000 N   0  0  0  0  0  0  0  0  0  0  0  0
    0.1258   -3.7365    0.0000 C   0  0  0  0  0  0  0  0  0  0  0  0
    0.8960   -4.0321    0.0000 C   0  0  0  0  0  0  0  0  0  0  0  0
   -0.2397   -5.8397    0.0000 N   0  0  0  0  0  0  0  0  0  0  0  0
  1  2  1  0  0  0  0
  2  3  2  0  0  0  0
  3  4  1  0  0  0  0
  4  5  1  0  0  0  0
  6  5  1  0  0  0  0
  6  1  1  6  0  0  0
  6  7  1  0  0  0  0
  7  8  1  0  0  0  0
  1  8  1  0  0  0  0
  9 10  1  0  0  0  0
  9 11  2  0  0  0  0
  2  9  1  0  0  0  0
 14 15  1  0  0  0  0
 15 16  2  0  0  0  0
 16 17  1  0  0  0  0
 17 18  2  0  0  0  0
 14 18  1  0  0  0  0
 13 18  1  0  0  0  0
 12 13  1  0  0  0  0
  3 12  1  0  0  0  0
  8 19  2  0  0  0  0
 21 22  2  0  0  0  0
 21 23  1  0  0  0  0
 23 24  2  0  0  0  0
 25 26  1  0  0  0  0
 26 27  2  0  0  0  0
 27 28  1  0  0  0  0
 28 29  2  0  0  0  0
 25 29  1  0  0  0  0
 26 30  1  0  0  0  0
 23 28  1  0  0  0  0
 20 21  1  0  0  0  0
  7 20  1  0  0  0  0
M  END
>  <type>
systematic

$$$$
5-Thia-1-azabicyclo[4.2.0]oct-2-ene-2-carboxylic acid, 7-[[(5-amino-1,3,4-thiadiazol-2-yl)oxoacetyl]amino]-3-[[(5-methyl-1,3,4-thiadiazol-2-yl)thio]methyl]-8-oxo-,(6R-trans)-
  Mrv2401 11032421072D          

 31 34  0  0  1  0            999 V2000
    1.6905   -0.1510    0.0000 N   0  0  0  0  0  0  0  0  0  0  0  0
    2.4049    0.2615    0.0000 C   0  0  0  0  0  0  0  0  0  0  0  0
    3.1194   -0.1510    0.0000 C   0  0  0  0  0  0  0  0  0  0  0  0
    3.1194   -0.9760    0.0000 C   0  0  0  0  0  0  0  0  0  0  0  0
    2.4049   -1.3885    0.0000 S   0  0  0  0  0  0  0  0  0  0  0  0
    1.6905   -0.9760    0.0000 C   0  0  2  0  0  0  0  0  0  0  0  0
    0.8655   -0.9760    0.0000 C   0  0  0  0  0  0  0  0  0  0  0  0
    0.8655   -0.1510    0.0000 C   0  0  0  0  0  0  0  0  0  0  0  0
    2.4049    1.0865    0.0000 C   0  0  0  0  0  0  0  0  0  0  0  0
    3.1194    1.4990    0.0000 O   0  0  0  0  0  0  0  0  0  0  0  0
    1.6905    1.4990    0.0000 O   0  0  0  0  0  0  0  0  0  0  0  0
    0.2821    0.4324    0.0000 O   0  0  0  0  0  0  0  0  0  0  0  0
    3.8339    0.2615    0.0000 C   0  0  0  0  0  0  0  0  0  0  0  0
    4.5483   -0.1510    0.0000 S   0  0  0  0  0  0  0  0  0  0  0  0
    6.0165   -0.0740    0.0000 S   0  0  0  0  0  0  0  0  0  0  0  0
    5.2628    0.2615    0.0000 C   0  0  0  0  0  0  0  0  0  0  0  0
    5.3490    1.0820    0.0000 N   0  0  0  0  0  0  0  0  0  0  0  0
    6.1560    1.2535    0.0000 N   0  0  0  0  0  0  0  0  0  0  0  0
    6.5685    0.5391    0.0000 C   0  0  0  0  0  0  0  0  0  0  0  0
    7.3890    0.4528    0.0000 C   0  0  0  0  0  0  0  0  0  0  0  0
    0.2821   -1.5593    0.0000 N   0  0  0  0  0  0  0  0  0  0  0  0
    0.4956   -2.3562    0.0000 C   0  0  0  0  0  0  0  0  0  0  0  0
    1.2925   -2.5698    0.0000 O   0  0  0  0  0  0  0  0  0  0  0  0
   -0.0877   -2.9396    0.0000 C   0  0  0  0  0  0  0  0  0  0  0  0
   -0.8846   -2.7261    0.0000 O   0  0  0  0  0  0  0  0  0  0  0  0
   -0.3934   -4.3776    0.0000 S   0  0  0  0  0  0  0  0  0  0  0  0
    0.1258   -3.7365    0.0000 C   0  0  0  0  0  0  0  0  0  0  0  0
    0.8960   -4.0321    0.0000 N   0  0  0  0  0  0  0  0  0  0  0  0
    0.8528   -4.8560    0.0000 N   0  0  0  0  0  0  0  0  0  0  0  0
    0.0559   -5.0695    0.0000 C   0  0  0  0  0  0  0  0  0  0  0  0
   -0.2397   -5.8397    0.0000 N   0  0  0  0  0  0  0  0  0  0  0  0
  1  2  1  0  0  0  0
  2  3  2  0  0  0  0
  3  4  1  0  0  0  0
  4  5  1  0  0  0  0
  6  5  1  0  0  0  0
  6  1  1  6  0  0  0
  6  7  1  0  0  0  0
  7  8  1  0  0  0  0
  1  8  1  0  0  0  0
  9 10  1  0  0  0  0
  9 11  2  0  0  0  0
  2  9  1  0  0  0  0
  8 12  2  0  0  0  0
 15 16  1  0  0  0  0
 16 17  2  0  0  0  0
 17 18  1  0  0  0  0
 18 19  2  0  0  0  0
 15 19  1  0  0  0  0
 19 20  1  0  0  0  0
 14 16  1  0  0  0  0
 13 14  1  0  0  0  0
  3 13  1  0  0  0  0
 22 23  2  0  0  0  0
 22 24  1  0  0  0  0
 24 25  2  0  0  0  0
 26 27  1  0  0  0  0
 27 28  2  0  0  0  0
 28 29  1  0  0  0  0
 29 30  2  0  0  0  0
 26 30  1  0  0  0  0
 30 31  1  0  0  0  0
 24 27  1  0  0  0  0
 21 22  1  0  0  0  0
  7 21  1  0  0  0  0
M  END
>  <type>
systematic

$$$$
5-Thia-1-azabicyclo[4.2.0]oct-2-ene-2-carboxylic acid, 7-[[(2-amino-4-thiazolyl)hydroxyacetyl]amino]-3-[[(5-methyl-1,3,4-thiadiazol-2-yl)thio]methyl]-8-oxo-, [6 R-(6α,7β)]-
  Mrv2401 11032421122D          

 31 34  0  0  1  0            999 V2000
    1.6905   -0.1510    0.0000 N   0  0  0  0  0  0  0  0  0  0  0  0
    2.4049    0.2615    0.0000 C   0  0  0  0  0  0  0  0  0  0  0  0
    3.1194   -0.1510    0.0000 C   0  0  0  0  0  0  0  0  0  0  0  0
    3.1194   -0.9760    0.0000 C   0  0  0  0  0  0  0  0  0  0  0  0
    2.4049   -1.3885    0.0000 S   0  0  0  0  0  0  0  0  0  0  0  0
    1.6905   -0.9760    0.0000 C   0  0  2  0  0  0  0  0  0  0  0  0
    0.8655   -0.9760    0.0000 C   0  0  2  0  0  0  0  0  0  0  0  0
    0.8655   -0.1510    0.0000 C   0  0  0  0  0  0  0  0  0  0  0  0
    2.4049    1.0865    0.0000 C   0  0  0  0  0  0  0  0  0  0  0  0
    3.1194    1.4990    0.0000 O   0  0  0  0  0  0  0  0  0  0  0  0
    1.6905    1.4990    0.0000 O   0  0  0  0  0  0  0  0  0  0  0  0
    0.2821    0.4324    0.0000 O   0  0  0  0  0  0  0  0  0  0  0  0
    3.8339    0.2615    0.0000 C   0  0  0  0  0  0  0  0  0  0  0  0
    4.5483   -0.1510    0.0000 S   0  0  0  0  0  0  0  0  0  0  0  0
    6.0165   -0.0740    0.0000 S   0  0  0  0  0  0  0  0  0  0  0  0
    5.2628    0.2615    0.0000 C   0  0  0  0  0  0  0  0  0  0  0  0
    5.3490    1.0820    0.0000 N   0  0  0  0  0  0  0  0  0  0  0  0
    6.1560    1.2535    0.0000 N   0  0  0  0  0  0  0  0  0  0  0  0
    6.5685    0.5391    0.0000 C   0  0  0  0  0  0  0  0  0  0  0  0
    7.3890    0.4528    0.0000 C   0  0  0  0  0  0  0  0  0  0  0  0
    0.2821   -1.5593    0.0000 N   0  0  0  0  0  0  0  0  0  0  0  0
    0.4956   -2.3562    0.0000 C   0  0  0  0  0  0  0  0  0  0  0  0
    1.2925   -2.5698    0.0000 O   0  0  0  0  0  0  0  0  0  0  0  0
   -0.0877   -2.9396    0.0000 C   0  0  0  0  0  0  0  0  0  0  0  0
   -0.8846   -2.7261    0.0000 O   0  0  0  0  0  0  0  0  0  0  0  0
    0.8528   -4.8560    0.0000 S   0  0  0  0  0  0  0  0  0  0  0  0
    0.0559   -5.0695    0.0000 C   0  0  0  0  0  0  0  0  0  0  0  0
   -0.3934   -4.3776    0.0000 N   0  0  0  0  0  0  0  0  0  0  0  0
    0.1258   -3.7365    0.0000 C   0  0  0  0  0  0  0  0  0  0  0  0
    0.8960   -4.0321    0.0000 C   0  0  0  0  0  0  0  0  0  0  0  0
   -0.2397   -5.8397    0.0000 N   0  0  0  0  0  0  0  0  0  0  0  0
  1  2  1  0  0  0  0
  2  3  2  0  0  0  0
  3  4  1  0  0  0  0
  4  5  1  0  0  0  0
  6  5  1  0  0  0  0
  6  1  1  6  0  0  0
  6  7  1  0  0  0  0
  7  8  1  0  0  0  0
  1  8  1  0  0  0  0
  9 10  1  0  0  0  0
  9 11  2  0  0  0  0
  2  9  1  0  0  0  0
  8 12  2  0  0  0  0
 15 16  1  0  0  0  0
 16 17  2  0  0  0  0
 17 18  1  0  0  0  0
 18 19  2  0  0  0  0
 15 19  1  0  0  0  0
 19 20  1  0  0  0  0
 14 16  1  0  0  0  0
 13 14  1  0  0  0  0
  3 13  1  0  0  0  0
 22 23  2  0  0  0  0
 22 24  1  0  0  0  0
 24 25  1  0  0  0  0
 26 27  1  0  0  0  0
 27 28  2  0  0  0  0
 28 29  1  0  0  0  0
 29 30  2  0  0  0  0
 26 30  1  0  0  0  0
 27 31  1  0  0  0  0
 24 29  1  0  0  0  0
 21 22  1  0  0  0  0
  7 21  1  1  0  0  0
M  END
>  <type>
systematic

$$$$
5-Thia-1-azabicyclo[4.2.0]oct-2-ene-2-carboxylic acid, 7-[(hydroxyphenylacetyl)amino]-7-methoxy-3-[[(1-methyl-1H-tetrazol-5-yl)thio]methyl]-8-oxo-, (6R)-
  Mrv2401 11032421122D          

 33 36  0  0  1  0            999 V2000
    1.6905   -0.1510    0.0000 N   0  0  0  0  0  0  0  0  0  0  0  0
    2.4049    0.2615    0.0000 C   0  0  0  0  0  0  0  0  0  0  0  0
    3.1194   -0.1510    0.0000 C   0  0  0  0  0  0  0  0  0  0  0  0
    3.1194   -0.9760    0.0000 C   0  0  0  0  0  0  0  0  0  0  0  0
    2.4049   -1.3885    0.0000 S   0  0  0  0  0  0  0  0  0  0  0  0
    1.6905   -0.9760    0.0000 C   0  0  2  0  0  0  0  0  0  0  0  0
    0.8655   -0.9760    0.0000 C   0  0  0  0  0  0  0  0  0  0  0  0
    0.8655   -0.1510    0.0000 C   0  0  0  0  0  0  0  0  0  0  0  0
    2.4049    1.0865    0.0000 C   0  0  0  0  0  0  0  0  0  0  0  0
    3.1194    1.4990    0.0000 O   0  0  0  0  0  0  0  0  0  0  0  0
    1.6905    1.4990    0.0000 O   0  0  0  0  0  0  0  0  0  0  0  0
    0.2821    0.4324    0.0000 O   0  0  0  0  0  0  0  0  0  0  0  0
    3.8339    0.2615    0.0000 C   0  0  0  0  0  0  0  0  0  0  0  0
    4.5483   -0.1510    0.0000 S   0  0  0  0  0  0  0  0  0  0  0  0
    5.3490    1.0820    0.0000 N   0  0  0  0  0  0  0  0  0  0  0  0
    6.1560    1.2535    0.0000 N   0  0  0  0  0  0  0  0  0  0  0  0
    6.5685    0.5391    0.0000 N   0  0  0  0  0  0  0  0  0  0  0  0
    6.0165   -0.0740    0.0000 N   0  0  0  0  0  0  0  0  0  0  0  0
    5.2628    0.2615    0.0000 C   0  0  0  0  0  0  0  0  0  0  0  0
    4.7360    1.6340    0.0000 C   0  0  0  0  0  0  0  0  0  0  0  0
    0.6729   -1.7782    0.0000 O   0  0  0  0  0  0  0  0  0  0  0  0
   -0.1182   -2.0125    0.0000 C   0  0  0  0  0  0  0  0  0  0  0  0
    0.0633   -1.1686    0.0000 N   0  0  0  0  0  0  0  0  0  0  0  0
   -0.5046   -0.5701    0.0000 C   0  0  0  0  0  0  0  0  0  0  0  0
   -0.2703    0.2209    0.0000 O   0  0  0  0  0  0  0  0  0  0  0  0
   -1.3068   -0.7627    0.0000 C   0  0  0  0  0  0  0  0  0  0  0  0
   -1.8747   -0.1643    0.0000 C   0  0  0  0  0  0  0  0  0  0  0  0
   -2.6769   -0.3569    0.0000 C   0  0  0  0  0  0  0  0  0  0  0  0
   -3.2448    0.2415    0.0000 C   0  0  0  0  0  0  0  0  0  0  0  0
   -3.0105    1.0326    0.0000 C   0  0  0  0  0  0  0  0  0  0  0  0
   -2.2083    1.2252    0.0000 C   0  0  0  0  0  0  0  0  0  0  0  0
   -1.6404    0.6267    0.0000 C   0  0  0  0  0  0  0  0  0  0  0  0
   -1.5412   -1.5538    0.0000 O   0  0  0  0  0  0  0  0  0  0  0  0
  1  2  1  0  0  0  0
  2  3  2  0  0  0  0
  3  4  1  0  0  0  0
  4  5  1  0  0  0  0
  6  5  1  0  0  0  0
  6  1  1  6  0  0  0
  6  7  1  0  0  0  0
  7  8  1  0  0  0  0
  1  8  1  0  0  0  0
  9 10  1  0  0  0  0
  9 11  2  0  0  0  0
  2  9  1  0  0  0  0
  8 12  2  0  0  0  0
 15 16  1  0  0  0  0
 16 17  2  0  0  0  0
 17 18  1  0  0  0  0
 18 19  2  0  0  0  0
 15 19  1  0  0  0  0
 15 20  1  0  0  0  0
 14 19  1  0  0  0  0
 13 14  1  0  0  0  0
  3 13  1  0  0  0  0
 21 22  1  0  0  0  0
  7 21  1  0  0  0  0
 24 25  2  0  0  0  0
 24 26  1  0  0  0  0
 27 28  2  0  0  0  0
 28 29  1  0  0  0  0
 29 30  2  0  0  0  0
 30 31  1  0  0  0  0
 31 32  2  0  0  0  0
 27 32  1  0  0  0  0
 26 27  1  0  0  0  0
 26 33  1  0  0  0  0
 23 24  1  0  0  0  0
  7 23  1  0  0  0  0
M  END
>  <type>
systematic

$$$$
5-Thia-1-azabicyclo[4.2.0]oct-2-ene-2-carboxylic acid, 7-[[(3-amino-2,3-dihydro-2-imino-4-thiazolyl)oxoacetyl]amino]-3-[[(1-methyl-1H-tetrazol-5-yl)thio]methyl]-8-oxo-, (6R-trans)-
  Mrv2401 11032421132D          

 32 35  0  0  1  0            999 V2000
    1.6905   -0.1510    0.0000 N   0  0  0  0  0  0  0  0  0  0  0  0
    2.4049    0.2615    0.0000 C   0  0  0  0  0  0  0  0  0  0  0  0
    3.1194   -0.1510    0.0000 C   0  0  0  0  0  0  0  0  0  0  0  0
    3.1194   -0.9760    0.0000 C   0  0  0  0  0  0  0  0  0  0  0  0
    2.4049   -1.3885    0.0000 S   0  0  0  0  0  0  0  0  0  0  0  0
    1.6905   -0.9760    0.0000 C   0  0  2  0  0  0  0  0  0  0  0  0
    0.8655   -0.9760    0.0000 C   0  0  0  0  0  0  0  0  0  0  0  0
    0.8655   -0.1510    0.0000 C   0  0  0  0  0  0  0  0  0  0  0  0
    2.4049    1.0865    0.0000 C   0  0  0  0  0  0  0  0  0  0  0  0
    3.1194    1.4990    0.0000 O   0  0  0  0  0  0  0  0  0  0  0  0
    1.6905    1.4990    0.0000 O   0  0  0  0  0  0  0  0  0  0  0  0
    0.2821    0.4324    0.0000 O   0  0  0  0  0  0  0  0  0  0  0  0
    3.8339    0.2615    0.0000 C   0  0  0  0  0  0  0  0  0  0  0  0
    4.5483   -0.1510    0.0000 S   0  0  0  0  0  0  0  0  0  0  0  0
    5.3490    1.0820    0.0000 N   0  0  0  0  0  0  0  0  0  0  0  0
    6.1560    1.2535    0.0000 N   0  0  0  0  0  0  0  0  0  0  0  0
    6.5685    0.5391    0.0000 N   0  0  0  0  0  0  0  0  0  0  0  0
    6.0165   -0.0740    0.0000 N   0  0  0  0  0  0  0  0  0  0  0  0
    5.2628    0.2615    0.0000 C   0  0  0  0  0  0  0  0  0  0  0  0
    4.7360    1.6340    0.0000 C   0  0  0  0  0  0  0  0  0  0  0  0
    0.2821   -1.5593    0.0000 N   0  0  0  0  0  0  0  0  0  0  0  0
    0.4956   -2.3562    0.0000 C   0  0  0  0  0  0  0  0  0  0  0  0
    1.2925   -2.5698    0.0000 O   0  0  0  0  0  0  0  0  0  0  0  0
   -0.0877   -2.9396    0.0000 C   0  0  0  0  0  0  0  0  0  0  0  0
   -0.8846   -2.7261    0.0000 O   0  0  0  0  0  0  0  0  0  0  0  0
    0.8528   -4.8560    0.0000 S   0  0  0  0  0  0  0  0  0  0  0  0
    0.0559   -5.0695    0.0000 C   0  0  0  0  0  0  0  0  0  0  0  0
   -0.3934   -4.3776    0.0000 N   0  0  0  0  0  0  0  0  0  0  0  0
    0.1258   -3.7365    0.0000 C   0  0  0  0  0  0  0  0  0  0  0  0
    0.8960   -4.0321    0.0000 C   0  0  0  0  0  0  0  0  0  0  0  0
   -0.2397   -5.8397    0.0000 N   0  0  0  0  0  0  0  0  0  0  0  0
   -1.2173   -4.3345    0.0000 N   0  0  0  0  0  0  0  0  0  0  0  0
  1  2  1  0  0  0  0
  2  3  2  0  0  0  0
  3  4  1  0  0  0  0
  4  5  1  0  0  0  0
  6  5  1  0  0  0  0
  6  1  1  6  0  0  0
  6  7  1  0  0  0  0
  7  8  1  0  0  0  0
  1  8  1  0  0  0  0
  9 10  1  0  0  0  0
  9 11  2  0  0  0  0
  2  9  1  0  0  0  0
  8 12  2  0  0  0  0
 15 16  1  0  0  0  0
 16 17  2  0  0  0  0
 17 18  1  0  0  0  0
 18 19  2  0  0  0  0
 15 19  1  0  0  0  0
 15 20  1  0  0  0  0
 14 19  1  0  0  0  0
 13 14  1  0  0  0  0
  3 13  1  0  0  0  0
 22 23  2  0  0  0  0
 22 24  1  0  0  0  0
 24 25  2  0  0  0  0
 26 27  1  0  0  0  0
 27 28  1  0  0  0  0
 28 29  1  0  0  0  0
 29 30  2  0  0  0  0
 26 30  1  0  0  0  0
 27 31  2  0  0  0  0
 28 32  1  0  0  0  0
 24 29  1  0  0  0  0
 21 22  1  0  0  0  0
  7 21  1  0  0  0  0
M  END
>  <type>
systematic

$$$$
5-Thia-1-azabicyclo[4.2.0]oct-2-ene-2-carboxylic acid, 7-[[(5-amino-1,3,4-thiadiazol-2-yl)hydroxyacetyl]amino]-3-[[(5-methyl-1,3,4-oxadiazol-2-yl)thio]methyl]-8-oxo-, [6 R-(6α,7β)]-
  Mrv2401 11032421142D          

 31 34  0  0  1  0            999 V2000
    1.6905   -0.1510    0.0000 N   0  0  0  0  0  0  0  0  0  0  0  0
    2.4049    0.2615    0.0000 C   0  0  0  0  0  0  0  0  0  0  0  0
    3.1194   -0.1510    0.0000 C   0  0  0  0  0  0  0  0  0  0  0  0
    3.1194   -0.9760    0.0000 C   0  0  0  0  0  0  0  0  0  0  0  0
    2.4049   -1.3885    0.0000 S   0  0  0  0  0  0  0  0  0  0  0  0
    1.6905   -0.9760    0.0000 C   0  0  2  0  0  0  0  0  0  0  0  0
    0.8655   -0.9760    0.0000 C   0  0  2  0  0  0  0  0  0  0  0  0
    0.8655   -0.1510    0.0000 C   0  0  0  0  0  0  0  0  0  0  0  0
    2.4049    1.0865    0.0000 C   0  0  0  0  0  0  0  0  0  0  0  0
    3.1194    1.4990    0.0000 O   0  0  0  0  0  0  0  0  0  0  0  0
    1.6905    1.4990    0.0000 O   0  0  0  0  0  0  0  0  0  0  0  0
    0.2821    0.4324    0.0000 O   0  0  0  0  0  0  0  0  0  0  0  0
    3.8339    0.2615    0.0000 C   0  0  0  0  0  0  0  0  0  0  0  0
    4.5483   -0.1510    0.0000 S   0  0  0  0  0  0  0  0  0  0  0  0
    6.0165   -0.0740    0.0000 O   0  0  0  0  0  0  0  0  0  0  0  0
    5.2628    0.2615    0.0000 C   0  0  0  0  0  0  0  0  0  0  0  0
    5.3490    1.0820    0.0000 N   0  0  0  0  0  0  0  0  0  0  0  0
    6.1560    1.2535    0.0000 N   0  0  0  0  0  0  0  0  0  0  0  0
    6.5685    0.5391    0.0000 C   0  0  0  0  0  0  0  0  0  0  0  0
    7.3890    0.4528    0.0000 C   0  0  0  0  0  0  0  0  0  0  0  0
    0.2821   -1.5593    0.0000 N   0  0  0  0  0  0  0  0  0  0  0  0
    0.4956   -2.3562    0.0000 C   0  0  0  0  0  0  0  0  0  0  0  0
    1.2925   -2.5698    0.0000 O   0  0  0  0  0  0  0  0  0  0  0  0
   -0.0877   -2.9396    0.0000 C   0  0  0  0  0  0  0  0  0  0  0  0
   -0.8846   -2.7261    0.0000 O   0  0  0  0  0  0  0  0  0  0  0  0
   -0.3934   -4.3776    0.0000 S   0  0  0  0  0  0  0  0  0  0  0  0
    0.1258   -3.7365    0.0000 C   0  0  0  0  0  0  0  0  0  0  0  0
    0.8960   -4.0321    0.0000 N   0  0  0  0  0  0  0  0  0  0  0  0
    0.8528   -4.8560    0.0000 N   0  0  0  0  0  0  0  0  0  0  0  0
    0.0559   -5.0695    0.0000 C   0  0  0  0  0  0  0  0  0  0  0  0
   -0.2397   -5.8397    0.0000 N   0  0  0  0  0  0  0  0  0  0  0  0
  1  2  1  0  0  0  0
  2  3  2  0  0  0  0
  3  4  1  0  0  0  0
  4  5  1  0  0  0  0
  6  5  1  0  0  0  0
  6  1  1  6  0  0  0
  6  7  1  0  0  0  0
  7  8  1  0  0  0  0
  1  8  1  0  0  0  0
  9 10  1  0  0  0  0
  9 11  2  0  0  0  0
  2  9  1  0  0  0  0
  8 12  2  0  0  0  0
 15 16  1  0  0  0  0
 16 17  2  0  0  0  0
 17 18  1  0  0  0  0
 18 19  2  0  0  0  0
 15 19  1  0  0  0  0
 19 20  1  0  0  0  0
 14 16  1  0  0  0  0
 13 14  1  0  0  0  0
  3 13  1  0  0  0  0
 22 23  2  0  0  0  0
 22 24  1  0  0  0  0
 24 25  1  0  0  0  0
 26 27  1  0  0  0  0
 27 28  2  0  0  0  0
 28 29  1  0  0  0  0
 29 30  2  0  0  0  0
 26 30  1  0  0  0  0
 30 31  1  0  0  0  0
 24 27  1  0  0  0  0
 21 22  1  0  0  0  0
  7 21  1  1  0  0  0
M  END
>  <type>
systematic

$$$$
5-Thia-1-azabicyclo[4.2.0]oct-2-ene-2-carboxylic acid, 7-[[(5-amino-1,3,4-thiadiazol-2-yl)hydroxyacetyl]amino]-3-[[(1-methyl-1H-tetrazol-5-yl)thio]methyl]-8-oxo-, [6 R-(6α,7β)]-
  Mrv2401 11032421152D          

 31 34  0  0  1  0            999 V2000
    1.6905   -0.1510    0.0000 N   0  0  0  0  0  0  0  0  0  0  0  0
    2.4049    0.2615    0.0000 C   0  0  0  0  0  0  0  0  0  0  0  0
    3.1194   -0.1510    0.0000 C   0  0  0  0  0  0  0  0  0  0  0  0
    3.1194   -0.9760    0.0000 C   0  0  0  0  0  0  0  0  0  0  0  0
    2.4049   -1.3885    0.0000 S   0  0  0  0  0  0  0  0  0  0  0  0
    1.6905   -0.9760    0.0000 C   0  0  2  0  0  0  0  0  0  0  0  0
    0.8655   -0.9760    0.0000 C   0  0  2  0  0  0  0  0  0  0  0  0
    0.8655   -0.1510    0.0000 C   0  0  0  0  0  0  0  0  0  0  0  0
    2.4049    1.0865    0.0000 C   0  0  0  0  0  0  0  0  0  0  0  0
    3.1194    1.4990    0.0000 O   0  0  0  0  0  0  0  0  0  0  0  0
    1.6905    1.4990    0.0000 O   0  0  0  0  0  0  0  0  0  0  0  0
    0.2821    0.4324    0.0000 O   0  0  0  0  0  0  0  0  0  0  0  0
    3.8339    0.2615    0.0000 C   0  0  0  0  0  0  0  0  0  0  0  0
    4.5483   -0.1510    0.0000 S   0  0  0  0  0  0  0  0  0  0  0  0
    5.3490    1.0820    0.0000 N   0  0  0  0  0  0  0  0  0  0  0  0
    6.1560    1.2535    0.0000 N   0  0  0  0  0  0  0  0  0  0  0  0
    6.5685    0.5391    0.0000 N   0  0  0  0  0  0  0  0  0  0  0  0
    6.0165   -0.0740    0.0000 N   0  0  0  0  0  0  0  0  0  0  0  0
    5.2628    0.2615    0.0000 C   0  0  0  0  0  0  0  0  0  0  0  0
    4.7360    1.6340    0.0000 C   0  0  0  0  0  0  0  0  0  0  0  0
    0.2821   -1.5593    0.0000 N   0  0  0  0  0  0  0  0  0  0  0  0
    0.4956   -2.3562    0.0000 C   0  0  0  0  0  0  0  0  0  0  0  0
    1.2925   -2.5698    0.0000 O   0  0  0  0  0  0  0  0  0  0  0  0
   -0.0877   -2.9396    0.0000 C   0  0  0  0  0  0  0  0  0  0  0  0
   -0.8846   -2.7261    0.0000 O   0  0  0  0  0  0  0  0  0  0  0  0
   -0.3934   -4.3776    0.0000 S   0  0  0  0  0  0  0  0  0  0  0  0
    0.1258   -3.7365    0.0000 C   0  0  0  0  0  0  0  0  0  0  0  0
    0.8960   -4.0321    0.0000 N   0  0  0  0  0  0  0  0  0  0  0  0
    0.8528   -4.8560    0.0000 N   0  0  0  0  0  0  0  0  0  0  0  0
    0.0559   -5.0695    0.0000 C   0  0  0  0  0  0  0  0  0  0  0  0
   -0.2397   -5.8397    0.0000 N   0  0  0  0  0  0  0  0  0  0  0  0
  1  2  1  0  0  0  0
  2  3  2  0  0  0  0
  3  4  1  0  0  0  0
  4  5  1  0  0  0  0
  6  5  1  0  0  0  0
  6  1  1  6  0  0  0
  6  7  1  0  0  0  0
  7  8  1  0  0  0  0
  1  8  1  0  0  0  0
  9 10  1  0  0  0  0
  9 11  2  0  0  0  0
  2  9  1  0  0  0  0
  8 12  2  0  0  0  0
 15 16  1  0  0  0  0
 16 17  2  0  0  0  0
 17 18  1  0  0  0  0
 18 19  2  0  0  0  0
 15 19  1  0  0  0  0
 15 20  1  0  0  0  0
 14 19  1  0  0  0  0
 13 14  1  0  0  0  0
  3 13  1  0  0  0  0
 22 23  2  0  0  0  0
 22 24  1  0  0  0  0
 24 25  1  0  0  0  0
 26 27  1  0  0  0  0
 27 28  2  0  0  0  0
 28 29  1  0  0  0  0
 29 30  2  0  0  0  0
 26 30  1  0  0  0  0
 30 31  1  0  0  0  0
 24 27  1  0  0  0  0
 21 22  1  0  0  0  0
  7 21  1  1  0  0  0
M  END
>  <type>
systematic

$$$$
5-Thia-1-azabicyclo[4.2.0]oct-2-ene-2-carboxylic acid, 7-[(hydroxyphenylacetyl)amino]-7-methoxy-3-[[(1-methyl-1H-tetrazol-5-yl)thio]methyl]-8-oxo-, [6 R-(6α,7α)]-
  Mrv2401 11032421152D          

 33 36  0  0  1  0            999 V2000
    1.6905   -0.1510    0.0000 N   0  0  0  0  0  0  0  0  0  0  0  0
    2.4049    0.2615    0.0000 C   0  0  0  0  0  0  0  0  0  0  0  0
    3.1194   -0.1510    0.0000 C   0  0  0  0  0  0  0  0  0  0  0  0
    3.1194   -0.9760    0.0000 C   0  0  0  0  0  0  0  0  0  0  0  0
    2.4049   -1.3885    0.0000 S   0  0  0  0  0  0  0  0  0  0  0  0
    1.6905   -0.9760    0.0000 C   0  0  2  0  0  0  0  0  0  0  0  0
    0.8655   -0.9760    0.0000 C   0  0  1  0  0  0  0  0  0  0  0  0
    0.8655   -0.1510    0.0000 C   0  0  0  0  0  0  0  0  0  0  0  0
    2.4049    1.0865    0.0000 C   0  0  0  0  0  0  0  0  0  0  0  0
    3.1194    1.4990    0.0000 O   0  0  0  0  0  0  0  0  0  0  0  0
    1.6905    1.4990    0.0000 O   0  0  0  0  0  0  0  0  0  0  0  0
    0.2821    0.4324    0.0000 O   0  0  0  0  0  0  0  0  0  0  0  0
    3.8339    0.2615    0.0000 C   0  0  0  0  0  0  0  0  0  0  0  0
    4.5483   -0.1510    0.0000 S   0  0  0  0  0  0  0  0  0  0  0  0
    5.3490    1.0820    0.0000 N   0  0  0  0  0  0  0  0  0  0  0  0
    6.1560    1.2535    0.0000 N   0  0  0  0  0  0  0  0  0  0  0  0
    6.5685    0.5391    0.0000 N   0  0  0  0  0  0  0  0  0  0  0  0
    6.0165   -0.0740    0.0000 N   0  0  0  0  0  0  0  0  0  0  0  0
    5.2628    0.2615    0.0000 C   0  0  0  0  0  0  0  0  0  0  0  0
    4.7360    1.6340    0.0000 C   0  0  0  0  0  0  0  0  0  0  0  0
    0.6729   -1.7782    0.0000 O   0  0  0  0  0  0  0  0  0  0  0  0
   -0.1182   -2.0125    0.0000 C   0  0  0  0  0  0  0  0  0  0  0  0
    0.0633   -1.1686    0.0000 N   0  0  0  0  0  0  0  0  0  0  0  0
   -0.5046   -0.5701    0.0000 C   0  0  0  0  0  0  0  0  0  0  0  0
   -0.2703    0.2209    0.0000 O   0  0  0  0  0  0  0  0  0  0  0  0
   -1.3068   -0.7627    0.0000 C   0  0  0  0  0  0  0  0  0  0  0  0
   -1.8747   -0.1643    0.0000 C   0  0  0  0  0  0  0  0  0  0  0  0
   -2.6769   -0.3569    0.0000 C   0  0  0  0  0  0  0  0  0  0  0  0
   -3.2448    0.2415    0.0000 C   0  0  0  0  0  0  0  0  0  0  0  0
   -3.0105    1.0326    0.0000 C   0  0  0  0  0  0  0  0  0  0  0  0
   -2.2083    1.2252    0.0000 C   0  0  0  0  0  0  0  0  0  0  0  0
   -1.6404    0.6267    0.0000 C   0  0  0  0  0  0  0  0  0  0  0  0
   -1.5412   -1.5538    0.0000 O   0  0  0  0  0  0  0  0  0  0  0  0
  1  2  1  0  0  0  0
  2  3  2  0  0  0  0
  3  4  1  0  0  0  0
  4  5  1  0  0  0  0
  6  5  1  0  0  0  0
  6  1  1  6  0  0  0
  6  7  1  0  0  0  0
  7  8  1  0  0  0  0
  1  8  1  0  0  0  0
  9 10  1  0  0  0  0
  9 11  2  0  0  0  0
  2  9  1  0  0  0  0
  8 12  2  0  0  0  0
 15 16  1  0  0  0  0
 16 17  2  0  0  0  0
 17 18  1  0  0  0  0
 18 19  2  0  0  0  0
 15 19  1  0  0  0  0
 15 20  1  0  0  0  0
 14 19  1  0  0  0  0
 13 14  1  0  0  0  0
  3 13  1  0  0  0  0
 21 22  1  0  0  0  0
  7 21  1  6  0  0  0
 24 25  2  0  0  0  0
 24 26  1  0  0  0  0
 27 28  2  0  0  0  0
 28 29  1  0  0  0  0
 29 30  2  0  0  0  0
 30 31  1  0  0  0  0
 31 32  2  0  0  0  0
 27 32  1  0  0  0  0
 26 27  1  0  0  0  0
 26 33  1  0  0  0  0
 23 24  1  0  0  0  0
  7 23  1  1  0  0  0
M  END
>  <type>
systematic

$$$$
Bicyclo[1.1.1]pentane-1-carboxylic acid, 3-[[2-[5-[[(3-cyano-4-fluorophenyl)amino]carbonyl]-2,3-dihydro-6-methyl-1H-pyrrolo[1,2- a]imidazol-7-yl]-2-oxoacetyl]amino]-
  Mrv2401 11032421162D          

 34 38  0  0  0  0            999 V2000
   -3.3103    0.4030    0.0000 C   0  0  0  0  0  0  0  0  0  0  0  0
   -3.8936    0.9864    0.0000 C   0  0  0  0  0  0  0  0  0  0  0  0
   -2.7269    0.9864    0.0000 C   0  0  0  0  0  0  0  0  0  0  0  0
   -3.3103    1.5697    0.0000 C   0  0  0  0  0  0  0  0  0  0  0  0
   -3.1644    0.9864    0.0000 C   0  0  0  0  0  0  0  0  0  0  0  0
   -3.3103   -0.4220    0.0000 C   0  0  0  0  0  0  0  0  0  0  0  0
   -4.0247   -0.8345    0.0000 O   0  0  0  0  0  0  0  0  0  0  0  0
   -2.5958   -0.8345    0.0000 O   0  0  0  0  0  0  0  0  0  0  0  0
   -3.3103    2.3947    0.0000 N   0  0  0  0  0  0  0  0  0  0  0  0
   -2.5958    2.8072    0.0000 C   0  0  0  0  0  0  0  0  0  0  0  0
   -1.8813    2.3947    0.0000 O   0  0  0  0  0  0  0  0  0  0  0  0
   -2.5958    3.6322    0.0000 C   0  0  0  0  0  0  0  0  0  0  0  0
   -3.3103    4.0447    0.0000 O   0  0  0  0  0  0  0  0  0  0  0  0
   -0.7151    2.9947    0.0000 N   0  0  0  0  0  0  0  0  0  0  0  0
    0.0918    3.1662    0.0000 C   0  0  0  0  0  0  0  0  0  0  0  0
    0.1781    3.9867    0.0000 C   0  0  0  0  0  0  0  0  0  0  0  0
   -0.5756    4.3223    0.0000 N   0  0  0  0  0  0  0  0  0  0  0  0
   -1.1276    3.7092    0.0000 C   0  0  0  0  0  0  0  0  0  0  0  0
   -1.8813    4.0447    0.0000 C   0  0  0  0  0  0  0  0  0  0  0  0
   -1.7951    4.8652    0.0000 C   0  0  0  0  0  0  0  0  0  0  0  0
   -0.9881    5.0367    0.0000 C   0  0  0  0  0  0  0  0  0  0  0  0
   -2.4082    5.4173    0.0000 C   0  0  0  0  0  0  0  0  0  0  0  0
   -0.6526    5.7904    0.0000 C   0  0  0  0  0  0  0  0  0  0  0  0
    0.1679    5.8767    0.0000 O   0  0  0  0  0  0  0  0  0  0  0  0
   -1.1375    6.4579    0.0000 N   0  0  0  0  0  0  0  0  0  0  0  0
   -0.8019    7.2115    0.0000 C   0  0  0  0  0  0  0  0  0  0  0  0
   -1.2868    7.8790    0.0000 C   0  0  0  0  0  0  0  0  0  0  0  0
   -0.9513    8.6327    0.0000 C   0  0  0  0  0  0  0  0  0  0  0  0
   -0.1308    8.7189    0.0000 C   0  0  0  0  0  0  0  0  0  0  0  0
    0.3541    8.0515    0.0000 C   0  0  0  0  0  0  0  0  0  0  0  0
    0.0186    7.2978    0.0000 C   0  0  0  0  0  0  0  0  0  0  0  0
    0.2048    9.4726    0.0000 F   0  0  0  0  0  0  0  0  0  0  0  0
   -1.4362    9.3001    0.0000 C   0  0  0  0  0  0  0  0  0  0  0  0
   -1.9211    9.9675    0.0000 N   0  0  0  0  0  0  0  0  0  0  0  0
  1  2  1  0  0  0  0
  1  3  1  0  0  0  0
  3  4  1  0  0  0  0
  2  4  1  0  0  0  0
  4  5  1  0  0  0  0
  1  5  1  0  0  0  0
  6  7  1  0  0  0  0
  6  8  2  0  0  0  0
  1  6  1  0  0  0  0
 10 11  2  0  0  0  0
 10 12  1  0  0  0  0
 12 13  2  0  0  0  0
 18 14  1  0  0  0  0
 14 15  1  0  0  0  0
 15 16  1  0  0  0  0
 17 16  1  0  0  0  0
 17 18  1  0  0  0  0
 18 19  2  0  0  0  0
 19 20  1  0  0  0  0
 20 21  2  0  0  0  0
 17 21  1  0  0  0  0
 20 22  1  0  0  0  0
 23 24  2  0  0  0  0
 26 27  2  0  0  0  0
 27 28  1  0  0  0  0
 28 29  2  0  0  0  0
 29 30  1  0  0  0  0
 30 31  2  0  0  0  0
 26 31  1  0  0  0  0
 29 32  1  0  0  0  0
 33 34  3  0  0  0  0
 28 33  1  0  0  0  0
 25 26  1  0  0  0  0
 23 25  1  0  0  0  0
 21 23  1  0  0  0  0
 12 19  1  0  0  0  0
  9 10  1  0  0  0  0
  4  9  1  0  0  0  0
M  END
>  <type>
systematic

$$$$
Bicyclo[1.1.1]pentane-1-carboxylic acid, 3-[[2-[5-[[(3,4-difluorophenyl)amino]carbonyl]-2,3-dihydro-6-methyl-1H-pyrrolo[1,2- a]imidazol-7-yl]-2-oxoacetyl]amino]-
  Mrv2401 11032421172D          

 33 37  0  0  0  0            999 V2000
   -3.3103    0.4030    0.0000 C   0  0  0  0  0  0  0  0  0  0  0  0
   -3.8936    0.9864    0.0000 C   0  0  0  0  0  0  0  0  0  0  0  0
   -2.7269    0.9864    0.0000 C   0  0  0  0  0  0  0  0  0  0  0  0
   -3.3103    1.5697    0.0000 C   0  0  0  0  0  0  0  0  0  0  0  0
   -3.1644    0.9864    0.0000 C   0  0  0  0  0  0  0  0  0  0  0  0
   -3.3103   -0.4220    0.0000 C   0  0  0  0  0  0  0  0  0  0  0  0
   -4.0247   -0.8345    0.0000 O   0  0  0  0  0  0  0  0  0  0  0  0
   -2.5958   -0.8345    0.0000 O   0  0  0  0  0  0  0  0  0  0  0  0
   -3.3103    2.3947    0.0000 N   0  0  0  0  0  0  0  0  0  0  0  0
   -2.5958    2.8072    0.0000 C   0  0  0  0  0  0  0  0  0  0  0  0
   -1.8813    2.3947    0.0000 O   0  0  0  0  0  0  0  0  0  0  0  0
   -2.5958    3.6322    0.0000 C   0  0  0  0  0  0  0  0  0  0  0  0
   -3.3103    4.0447    0.0000 O   0  0  0  0  0  0  0  0  0  0  0  0
   -0.7151    2.9947    0.0000 N   0  0  0  0  0  0  0  0  0  0  0  0
    0.0918    3.1662    0.0000 C   0  0  0  0  0  0  0  0  0  0  0  0
    0.1781    3.9867    0.0000 C   0  0  0  0  0  0  0  0  0  0  0  0
   -0.5756    4.3223    0.0000 N   0  0  0  0  0  0  0  0  0  0  0  0
   -1.1276    3.7092    0.0000 C   0  0  0  0  0  0  0  0  0  0  0  0
   -1.8813    4.0447    0.0000 C   0  0  0  0  0  0  0  0  0  0  0  0
   -1.7951    4.8652    0.0000 C   0  0  0  0  0  0  0  0  0  0  0  0
   -0.9881    5.0367    0.0000 C   0  0  0  0  0  0  0  0  0  0  0  0
   -2.4082    5.4173    0.0000 C   0  0  0  0  0  0  0  0  0  0  0  0
   -0.6526    5.7904    0.0000 C   0  0  0  0  0  0  0  0  0  0  0  0
    0.1679    5.8767    0.0000 O   0  0  0  0  0  0  0  0  0  0  0  0
   -1.1375    6.4579    0.0000 N   0  0  0  0  0  0  0  0  0  0  0  0
   -0.8019    7.2115    0.0000 C   0  0  0  0  0  0  0  0  0  0  0  0
   -1.2868    7.8790    0.0000 C   0  0  0  0  0  0  0  0  0  0  0  0
   -0.9513    8.6327    0.0000 C   0  0  0  0  0  0  0  0  0  0  0  0
   -0.1308    8.7189    0.0000 C   0  0  0  0  0  0  0  0  0  0  0  0
    0.3541    8.0515    0.0000 C   0  0  0  0  0  0  0  0  0  0  0  0
    0.0186    7.2978    0.0000 C   0  0  0  0  0  0  0  0  0  0  0  0
   -1.4362    9.3001    0.0000 F   0  0  0  0  0  0  0  0  0  0  0  0
    0.2048    9.4726    0.0000 F   0  0  0  0  0  0  0  0  0  0  0  0
  1  2  1  0  0  0  0
  1  3  1  0  0  0  0
  3  4  1  0  0  0  0
  2  4  1  0  0  0  0
  4  5  1  0  0  0  0
  1  5  1  0  0  0  0
  6  7  1  0  0  0  0
  6  8  2  0  0  0  0
  1  6  1  0  0  0  0
 10 11  2  0  0  0  0
 10 12  1  0  0  0  0
 12 13  2  0  0  0  0
 18 14  1  0  0  0  0
 14 15  1  0  0  0  0
 15 16  1  0  0  0  0
 17 16  1  0  0  0  0
 17 18  1  0  0  0  0
 18 19  2  0  0  0  0
 19 20  1  0  0  0  0
 20 21  2  0  0  0  0
 17 21  1  0  0  0  0
 20 22  1  0  0  0  0
 23 24  2  0  0  0  0
 26 27  2  0  0  0  0
 27 28  1  0  0  0  0
 28 29  2  0  0  0  0
 29 30  1  0  0  0  0
 30 31  2  0  0  0  0
 26 31  1  0  0  0  0
 28 32  1  0  0  0  0
 29 33  1  0  0  0  0
 25 26  1  0  0  0  0
 23 25  1  0  0  0  0
 21 23  1  0  0  0  0
 12 19  1  0  0  0  0
  9 10  1  0  0  0  0
  4  9  1  0  0  0  0
M  END
>  <type>
systematic

$$$$
5-Thia-1-azabicyclo[4.2.0]oct-2-ene-2-carboxylic acid, 7-[[(5-amino-1,3,4-thiadiazol-2-yl)hydroxyacetyl]amino]-3-[[(4-methyl-4H-1,2,4-triazol-3-yl)thio]methyl]-8-oxo-, [6 R-(6α,7β)]-
  Mrv2401 11032421172D          

 31 34  0  0  1  0            999 V2000
    1.6905   -0.1510    0.0000 N   0  0  0  0  0  0  0  0  0  0  0  0
    2.4049    0.2615    0.0000 C   0  0  0  0  0  0  0  0  0  0  0  0
    3.1194   -0.1510    0.0000 C   0  0  0  0  0  0  0  0  0  0  0  0
    3.1194   -0.9760    0.0000 C   0  0  0  0  0  0  0  0  0  0  0  0
    2.4049   -1.3885    0.0000 S   0  0  0  0  0  0  0  0  0  0  0  0
    1.6905   -0.9760    0.0000 C   0  0  2  0  0  0  0  0  0  0  0  0
    0.8655   -0.9760    0.0000 C   0  0  2  0  0  0  0  0  0  0  0  0
    0.8655   -0.1510    0.0000 C   0  0  0  0  0  0  0  0  0  0  0  0
    2.4049    1.0865    0.0000 C   0  0  0  0  0  0  0  0  0  0  0  0
    3.1194    1.4990    0.0000 O   0  0  0  0  0  0  0  0  0  0  0  0
    1.6905    1.4990    0.0000 O   0  0  0  0  0  0  0  0  0  0  0  0
    0.2821    0.4324    0.0000 O   0  0  0  0  0  0  0  0  0  0  0  0
    3.8339    0.2615    0.0000 C   0  0  0  0  0  0  0  0  0  0  0  0
    4.5483   -0.1510    0.0000 S   0  0  0  0  0  0  0  0  0  0  0  0
    6.5685    0.5391    0.0000 N   0  0  0  0  0  0  0  0  0  0  0  0
    6.0165   -0.0740    0.0000 N   0  0  0  0  0  0  0  0  0  0  0  0
    5.2628    0.2615    0.0000 C   0  0  0  0  0  0  0  0  0  0  0  0
    5.3490    1.0820    0.0000 N   0  0  0  0  0  0  0  0  0  0  0  0
    6.1560    1.2535    0.0000 C   0  0  0  0  0  0  0  0  0  0  0  0
    4.7360    1.6340    0.0000 C   0  0  0  0  0  0  0  0  0  0  0  0
    0.2821   -1.5593    0.0000 N   0  0  0  0  0  0  0  0  0  0  0  0
    0.4956   -2.3562    0.0000 C   0  0  0  0  0  0  0  0  0  0  0  0
    1.2925   -2.5698    0.0000 O   0  0  0  0  0  0  0  0  0  0  0  0
   -0.0877   -2.9396    0.0000 C   0  0  0  0  0  0  0  0  0  0  0  0
   -0.8846   -2.7261    0.0000 O   0  0  0  0  0  0  0  0  0  0  0  0
   -0.3934   -4.3776    0.0000 S   0  0  0  0  0  0  0  0  0  0  0  0
    0.1258   -3.7365    0.0000 C   0  0  0  0  0  0  0  0  0  0  0  0
    0.8960   -4.0321    0.0000 N   0  0  0  0  0  0  0  0  0  0  0  0
    0.8528   -4.8560    0.0000 N   0  0  0  0  0  0  0  0  0  0  0  0
    0.0559   -5.0695    0.0000 C   0  0  0  0  0  0  0  0  0  0  0  0
   -0.2397   -5.8397    0.0000 N   0  0  0  0  0  0  0  0  0  0  0  0
  1  2  1  0  0  0  0
  2  3  2  0  0  0  0
  3  4  1  0  0  0  0
  4  5  1  0  0  0  0
  6  5  1  0  0  0  0
  6  1  1  6  0  0  0
  6  7  1  0  0  0  0
  7  8  1  0  0  0  0
  1  8  1  0  0  0  0
  9 10  1  0  0  0  0
  9 11  2  0  0  0  0
  2  9  1  0  0  0  0
  8 12  2  0  0  0  0
 15 16  1  0  0  0  0
 16 17  2  0  0  0  0
 17 18  1  0  0  0  0
 18 19  1  0  0  0  0
 15 19  2  0  0  0  0
 18 20  1  0  0  0  0
 14 17  1  0  0  0  0
 13 14  1  0  0  0  0
  3 13  1  0  0  0  0
 22 23  2  0  0  0  0
 22 24  1  0  0  0  0
 24 25  1  0  0  0  0
 26 27  1  0  0  0  0
 27 28  2  0  0  0  0
 28 29  1  0  0  0  0
 29 30  2  0  0  0  0
 26 30  1  0  0  0  0
 30 31  1  0  0  0  0
 24 27  1  0  0  0  0
 21 22  1  0  0  0  0
  7 21  1  1  0  0  0
M  END
>  <type>
systematic

$$$$
5-Thia-1-azabicyclo[4.2.0]oct-2-ene-2-carboxylic acid, 7-[[(2-amino-4-thiazolyl)hydroxyacetyl]amino]-3-[[(1-methyl-1H-tetrazol-5-yl)thio]methyl]-8-oxo-, [6 R-(6α,7β)]-
  Mrv2401 11032421182D          

 31 34  0  0  1  0            999 V2000
    1.6905   -0.1510    0.0000 N   0  0  0  0  0  0  0  0  0  0  0  0
    2.4049    0.2615    0.0000 C   0  0  0  0  0  0  0  0  0  0  0  0
    3.1194   -0.1510    0.0000 C   0  0  0  0  0  0  0  0  0  0  0  0
    3.1194   -0.9760    0.0000 C   0  0  0  0  0  0  0  0  0  0  0  0
    2.4049   -1.3885    0.0000 S   0  0  0  0  0  0  0  0  0  0  0  0
    1.6905   -0.9760    0.0000 C   0  0  2  0  0  0  0  0  0  0  0  0
    0.8655   -0.9760    0.0000 C   0  0  2  0  0  0  0  0  0  0  0  0
    0.8655   -0.1510    0.0000 C   0  0  0  0  0  0  0  0  0  0  0  0
    2.4049    1.0865    0.0000 C   0  0  0  0  0  0  0  0  0  0  0  0
    3.1194    1.4990    0.0000 O   0  0  0  0  0  0  0  0  0  0  0  0
    1.6905    1.4990    0.0000 O   0  0  0  0  0  0  0  0  0  0  0  0
    0.2821    0.4324    0.0000 O   0  0  0  0  0  0  0  0  0  0  0  0
    3.8339    0.2615    0.0000 C   0  0  0  0  0  0  0  0  0  0  0  0
    4.5483   -0.1510    0.0000 S   0  0  0  0  0  0  0  0  0  0  0  0
    5.3490    1.0820    0.0000 N   0  0  0  0  0  0  0  0  0  0  0  0
    6.1560    1.2535    0.0000 N   0  0  0  0  0  0  0  0  0  0  0  0
    6.5685    0.5391    0.0000 N   0  0  0  0  0  0  0  0  0  0  0  0
    6.0165   -0.0740    0.0000 N   0  0  0  0  0  0  0  0  0  0  0  0
    5.2628    0.2615    0.0000 C   0  0  0  0  0  0  0  0  0  0  0  0
    4.7360    1.6340    0.0000 C   0  0  0  0  0  0  0  0  0  0  0  0
    0.2821   -1.5593    0.0000 N   0  0  0  0  0  0  0  0  0  0  0  0
    0.4956   -2.3562    0.0000 C   0  0  0  0  0  0  0  0  0  0  0  0
    1.2925   -2.5698    0.0000 O   0  0  0  0  0  0  0  0  0  0  0  0
   -0.0877   -2.9396    0.0000 C   0  0  0  0  0  0  0  0  0  0  0  0
   -0.8846   -2.7261    0.0000 O   0  0  0  0  0  0  0  0  0  0  0  0
    0.8528   -4.8560    0.0000 S   0  0  0  0  0  0  0  0  0  0  0  0
    0.0559   -5.0695    0.0000 C   0  0  0  0  0  0  0  0  0  0  0  0
   -0.3934   -4.3776    0.0000 N   0  0  0  0  0  0  0  0  0  0  0  0
    0.1258   -3.7365    0.0000 C   0  0  0  0  0  0  0  0  0  0  0  0
    0.8960   -4.0321    0.0000 C   0  0  0  0  0  0  0  0  0  0  0  0
   -0.2397   -5.8397    0.0000 N   0  0  0  0  0  0  0  0  0  0  0  0
  1  2  1  0  0  0  0
  2  3  2  0  0  0  0
  3  4  1  0  0  0  0
  4  5  1  0  0  0  0
  6  5  1  0  0  0  0
  6  1  1  6  0  0  0
  6  7  1  0  0  0  0
  7  8  1  0  0  0  0
  1  8  1  0  0  0  0
  9 10  1  0  0  0  0
  9 11  2  0  0  0  0
  2  9  1  0  0  0  0
  8 12  2  0  0  0  0
 15 16  1  0  0  0  0
 16 17  2  0  0  0  0
 17 18  1  0  0  0  0
 18 19  2  0  0  0  0
 15 19  1  0  0  0  0
 15 20  1  0  0  0  0
 14 19  1  0  0  0  0
 13 14  1  0  0  0  0
  3 13  1  0  0  0  0
 22 23  2  0  0  0  0
 22 24  1  0  0  0  0
 24 25  1  0  0  0  0
 26 27  1  0  0  0  0
 27 28  2  0  0  0  0
 28 29  1  0  0  0  0
 29 30  2  0  0  0  0
 26 30  1  0  0  0  0
 27 31  1  0  0  0  0
 24 29  1  0  0  0  0
 21 22  1  0  0  0  0
  7 21  1  1  0  0  0
M  END
>  <type>
systematic

$$$$
5-Thia-1-azabicyclo[4.2.0]oct-2-ene-2-carboxylic acid, 7-[[(2,3-dihydro-2-oxo-4-thiazolyl)hydroxyacetyl]amino]-3-[[(1-methyl-1H-tetrazol-5-yl)thio]methyl]-8-oxo-, [6 R-(6α,7β)]-
  Mrv2401 11032421202D          

 31 34  0  0  1  0            999 V2000
    1.6905   -0.1510    0.0000 N   0  0  0  0  0  0  0  0  0  0  0  0
    2.4049    0.2615    0.0000 C   0  0  0  0  0  0  0  0  0  0  0  0
    3.1194   -0.1510    0.0000 C   0  0  0  0  0  0  0  0  0  0  0  0
    3.1194   -0.9760    0.0000 C   0  0  0  0  0  0  0  0  0  0  0  0
    2.4049   -1.3885    0.0000 S   0  0  0  0  0  0  0  0  0  0  0  0
    1.6905   -0.9760    0.0000 C   0  0  2  0  0  0  0  0  0  0  0  0
    0.8655   -0.9760    0.0000 C   0  0  2  0  0  0  0  0  0  0  0  0
    0.8655   -0.1510    0.0000 C   0  0  0  0  0  0  0  0  0  0  0  0
    2.4049    1.0865    0.0000 C   0  0  0  0  0  0  0  0  0  0  0  0
    3.1194    1.4990    0.0000 O   0  0  0  0  0  0  0  0  0  0  0  0
    1.6905    1.4990    0.0000 O   0  0  0  0  0  0  0  0  0  0  0  0
    0.2821    0.4324    0.0000 O   0  0  0  0  0  0  0  0  0  0  0  0
    3.8339    0.2615    0.0000 C   0  0  0  0  0  0  0  0  0  0  0  0
    4.5483   -0.1510    0.0000 S   0  0  0  0  0  0  0  0  0  0  0  0
    5.3490    1.0820    0.0000 N   0  0  0  0  0  0  0  0  0  0  0  0
    6.1560    1.2535    0.0000 N   0  0  0  0  0  0  0  0  0  0  0  0
    6.5685    0.5391    0.0000 N   0  0  0  0  0  0  0  0  0  0  0  0
    6.0165   -0.0740    0.0000 N   0  0  0  0  0  0  0  0  0  0  0  0
    5.2628    0.2615    0.0000 C   0  0  0  0  0  0  0  0  0  0  0  0
    4.7360    1.6340    0.0000 C   0  0  0  0  0  0  0  0  0  0  0  0
    0.2821   -1.5593    0.0000 N   0  0  0  0  0  0  0  0  0  0  0  0
    0.4956   -2.3562    0.0000 C   0  0  0  0  0  0  0  0  0  0  0  0
    1.2925   -2.5698    0.0000 O   0  0  0  0  0  0  0  0  0  0  0  0
   -0.0877   -2.9396    0.0000 C   0  0  0  0  0  0  0  0  0  0  0  0
   -0.8846   -2.7261    0.0000 O   0  0  0  0  0  0  0  0  0  0  0  0
    0.8528   -4.8560    0.0000 S   0  0  0  0  0  0  0  0  0  0  0  0
    0.0559   -5.0695    0.0000 C   0  0  0  0  0  0  0  0  0  0  0  0
   -0.3934   -4.3776    0.0000 N   0  0  0  0  0  0  0  0  0  0  0  0
    0.1258   -3.7365    0.0000 C   0  0  0  0  0  0  0  0  0  0  0  0
    0.8960   -4.0321    0.0000 C   0  0  0  0  0  0  0  0  0  0  0  0
   -0.2397   -5.8397    0.0000 O   0  0  0  0  0  0  0  0  0  0  0  0
  1  2  1  0  0  0  0
  2  3  2  0  0  0  0
  3  4  1  0  0  0  0
  4  5  1  0  0  0  0
  6  5  1  0  0  0  0
  6  1  1  6  0  0  0
  6  7  1  0  0  0  0
  7  8  1  0  0  0  0
  1  8  1  0  0  0  0
  9 10  1  0  0  0  0
  9 11  2  0  0  0  0
  2  9  1  0  0  0  0
  8 12  2  0  0  0  0
 15 16  1  0  0  0  0
 16 17  2  0  0  0  0
 17 18  1  0  0  0  0
 18 19  2  0  0  0  0
 15 19  1  0  0  0  0
 15 20  1  0  0  0  0
 14 19  1  0  0  0  0
 13 14  1  0  0  0  0
  3 13  1  0  0  0  0
 22 23  2  0  0  0  0
 22 24  1  0  0  0  0
 24 25  1  0  0  0  0
 26 27  1  0  0  0  0
 27 28  1  0  0  0  0
 28 29  1  0  0  0  0
 29 30  2  0  0  0  0
 26 30  1  0  0  0  0
 27 31  2  0  0  0  0
 24 29  1  0  0  0  0
 21 22  1  0  0  0  0
  7 21  1  1  0  0  0
M  END
>  <type>
systematic

$$$$
5-Thia-1-azabicyclo[4.2.0]oct-2-ene-2-carboxylic acid, 7-methoxy-3-(1-methyl-1H-tetrazol-5-yl)-8-oxo-7-[(oxo-2-thienylacetyl)amino]-, (6R-cis)-
  Mrv2401 11032421212D          

 30 33  0  0  1  0            999 V2000
    1.6905   -0.1510    0.0000 N   0  0  0  0  0  0  0  0  0  0  0  0
    2.4049    0.2615    0.0000 C   0  0  0  0  0  0  0  0  0  0  0  0
    3.1194   -0.1510    0.0000 C   0  0  0  0  0  0  0  0  0  0  0  0
    3.1194   -0.9760    0.0000 C   0  0  0  0  0  0  0  0  0  0  0  0
    2.4049   -1.3885    0.0000 S   0  0  0  0  0  0  0  0  0  0  0  0
    1.6905   -0.9760    0.0000 C   0  0  2  0  0  0  0  0  0  0  0  0
    0.8655   -0.9760    0.0000 C   0  0  0  0  0  0  0  0  0  0  0  0
    0.8655   -0.1510    0.0000 C   0  0  0  0  0  0  0  0  0  0  0  0
    2.4049    1.0865    0.0000 C   0  0  0  0  0  0  0  0  0  0  0  0
    1.6905    1.4990    0.0000 O   0  0  0  0  0  0  0  0  0  0  0  0
    3.1194    1.4990    0.0000 O   0  0  0  0  0  0  0  0  0  0  0  0
    0.6729   -1.7782    0.0000 N   0  0  0  0  0  0  0  0  0  0  0  0
   -0.1182   -2.0125    0.0000 C   0  0  0  0  0  0  0  0  0  0  0  0
   -0.7166   -1.4446    0.0000 O   0  0  0  0  0  0  0  0  0  0  0  0
   -0.3108   -2.8147    0.0000 C   0  0  0  0  0  0  0  0  0  0  0  0
   -1.7563   -2.5468    0.0000 S   0  0  0  0  0  0  0  0  0  0  0  0
   -1.1018   -3.0490    0.0000 C   0  0  0  0  0  0  0  0  0  0  0  0
   -1.3772   -3.8267    0.0000 C   0  0  0  0  0  0  0  0  0  0  0  0
   -2.2019   -3.8051    0.0000 C   0  0  0  0  0  0  0  0  0  0  0  0
   -2.4362   -3.0141    0.0000 C   0  0  0  0  0  0  0  0  0  0  0  0
    0.2877   -3.3826    0.0000 O   0  0  0  0  0  0  0  0  0  0  0  0
    0.2821    0.4324    0.0000 O   0  0  0  0  0  0  0  0  0  0  0  0
    4.5875   -0.0740    0.0000 N   0  0  0  0  0  0  0  0  0  0  0  0
    5.1396    0.5391    0.0000 N   0  0  0  0  0  0  0  0  0  0  0  0
    4.7271    1.2535    0.0000 N   0  0  0  0  0  0  0  0  0  0  0  0
    3.9201    1.0820    0.0000 N   0  0  0  0  0  0  0  0  0  0  0  0
    3.8339    0.2615    0.0000 C   0  0  0  0  0  0  0  0  0  0  0  0
    4.7591   -0.8810    0.0000 C   0  0  0  0  0  0  0  0  0  0  0  0
    0.0633   -1.1686    0.0000 O   0  0  0  0  0  0  0  0  0  0  0  0
   -0.5046   -0.5701    0.0000 C   0  0  0  0  0  0  0  0  0  0  0  0
  1  2  1  0  0  0  0
  2  3  2  0  0  0  0
  3  4  1  0  0  0  0
  4  5  1  0  0  0  0
  6  5  1  0  0  0  0
  6  1  1  6  0  0  0
  6  7  1  0  0  0  0
  7  8  1  0  0  0  0
  1  8  1  0  0  0  0
  9 10  1  0  0  0  0
  9 11  2  0  0  0  0
  2  9  1  0  0  0  0
 13 14  2  0  0  0  0
 13 15  1  0  0  0  0
 16 17  1  0  0  0  0
 17 18  2  0  0  0  0
 18 19  1  0  0  0  0
 19 20  2  0  0  0  0
 16 20  1  0  0  0  0
 15 17  1  0  0  0  0
 15 21  2  0  0  0  0
 12 13  1  0  0  0  0
  7 12  1  0  0  0  0
  8 22  2  0  0  0  0
 23 24  1  0  0  0  0
 24 25  2  0  0  0  0
 25 26  1  0  0  0  0
 26 27  2  0  0  0  0
 23 27  1  0  0  0  0
 23 28  1  0  0  0  0
  3 27  1  0  0  0  0
 29 30  1  0  0  0  0
  7 29  1  0  0  0  0
M  END
>  <type>
systematic

$$$$
5-Thia-1-azabicyclo[4.2.0]oct-2-ene-2-carboxylic acid, 7-[[(2-amino-4-thiazolyl)hydroxyacetyl]amino]-3-[[(4-methyl-4H-1,2,4-triazol-3-yl)thio]methyl]-8-oxo-, [6 R-(6α,7β)]-
  Mrv2401 11032421222D          

 31 34  0  0  1  0            999 V2000
    1.6905   -0.1510    0.0000 N   0  0  0  0  0  0  0  0  0  0  0  0
    2.4049    0.2615    0.0000 C   0  0  0  0  0  0  0  0  0  0  0  0
    3.1194   -0.1510    0.0000 C   0  0  0  0  0  0  0  0  0  0  0  0
    3.1194   -0.9760    0.0000 C   0  0  0  0  0  0  0  0  0  0  0  0
    2.4049   -1.3885    0.0000 S   0  0  0  0  0  0  0  0  0  0  0  0
    1.6905   -0.9760    0.0000 C   0  0  2  0  0  0  0  0  0  0  0  0
    0.8655   -0.9760    0.0000 C   0  0  2  0  0  0  0  0  0  0  0  0
    0.8655   -0.1510    0.0000 C   0  0  0  0  0  0  0  0  0  0  0  0
    2.4049    1.0865    0.0000 C   0  0  0  0  0  0  0  0  0  0  0  0
    3.1194    1.4990    0.0000 O   0  0  0  0  0  0  0  0  0  0  0  0
    1.6905    1.4990    0.0000 O   0  0  0  0  0  0  0  0  0  0  0  0
    0.2821    0.4324    0.0000 O   0  0  0  0  0  0  0  0  0  0  0  0
    3.8339    0.2615    0.0000 C   0  0  0  0  0  0  0  0  0  0  0  0
    4.5483   -0.1510    0.0000 S   0  0  0  0  0  0  0  0  0  0  0  0
    6.5685    0.5391    0.0000 N   0  0  0  0  0  0  0  0  0  0  0  0
    6.0165   -0.0740    0.0000 N   0  0  0  0  0  0  0  0  0  0  0  0
    5.2628    0.2615    0.0000 C   0  0  0  0  0  0  0  0  0  0  0  0
    5.3490    1.0820    0.0000 N   0  0  0  0  0  0  0  0  0  0  0  0
    6.1560    1.2535    0.0000 C   0  0  0  0  0  0  0  0  0  0  0  0
    4.7360    1.6340    0.0000 C   0  0  0  0  0  0  0  0  0  0  0  0
    0.2821   -1.5593    0.0000 N   0  0  0  0  0  0  0  0  0  0  0  0
    0.4956   -2.3562    0.0000 C   0  0  0  0  0  0  0  0  0  0  0  0
    1.2925   -2.5698    0.0000 O   0  0  0  0  0  0  0  0  0  0  0  0
   -0.0877   -2.9396    0.0000 C   0  0  0  0  0  0  0  0  0  0  0  0
   -0.8846   -2.7261    0.0000 O   0  0  0  0  0  0  0  0  0  0  0  0
    0.8528   -4.8560    0.0000 S   0  0  0  0  0  0  0  0  0  0  0  0
    0.0559   -5.0695    0.0000 C   0  0  0  0  0  0  0  0  0  0  0  0
   -0.3934   -4.3776    0.0000 N   0  0  0  0  0  0  0  0  0  0  0  0
    0.1258   -3.7365    0.0000 C   0  0  0  0  0  0  0  0  0  0  0  0
    0.8960   -4.0321    0.0000 C   0  0  0  0  0  0  0  0  0  0  0  0
   -0.2397   -5.8397    0.0000 N   0  0  0  0  0  0  0  0  0  0  0  0
  1  2  1  0  0  0  0
  2  3  2  0  0  0  0
  3  4  1  0  0  0  0
  4  5  1  0  0  0  0
  6  5  1  0  0  0  0
  6  1  1  6  0  0  0
  6  7  1  0  0  0  0
  7  8  1  0  0  0  0
  1  8  1  0  0  0  0
  9 10  1  0  0  0  0
  9 11  2  0  0  0  0
  2  9  1  0  0  0  0
  8 12  2  0  0  0  0
 15 16  1  0  0  0  0
 16 17  2  0  0  0  0
 17 18  1  0  0  0  0
 18 19  1  0  0  0  0
 15 19  2  0  0  0  0
 18 20  1  0  0  0  0
 14 17  1  0  0  0  0
 13 14  1  0  0  0  0
  3 13  1  0  0  0  0
 22 23  2  0  0  0  0
 22 24  1  0  0  0  0
 24 25  1  0  0  0  0
 26 27  1  0  0  0  0
 27 28  2  0  0  0  0
 28 29  1  0  0  0  0
 29 30  2  0  0  0  0
 26 30  1  0  0  0  0
 27 31  1  0  0  0  0
 24 29  1  0  0  0  0
 21 22  1  0  0  0  0
  7 21  1  1  0  0  0
M  END
>  <type>
systematic

$$$$
Bicyclo[1.1.1]pentane-1-carboxylic acid, 3-[[2-[2,3-dihydro-6-methyl-5-[[(3,4,5-trifluorophenyl)amino]carbonyl]-1H-pyrrolo[1,2-a]imidazol-7-yl]-2-oxoacetyl]amino]-
  Mrv2401 11032421232D          

 34 38  0  0  0  0            999 V2000
   -3.3103    0.4030    0.0000 C   0  0  0  0  0  0  0  0  0  0  0  0
   -3.8936    0.9864    0.0000 C   0  0  0  0  0  0  0  0  0  0  0  0
   -2.7269    0.9864    0.0000 C   0  0  0  0  0  0  0  0  0  0  0  0
   -3.3103    1.5697    0.0000 C   0  0  0  0  0  0  0  0  0  0  0  0
   -3.1644    0.9864    0.0000 C   0  0  0  0  0  0  0  0  0  0  0  0
   -3.3103   -0.4220    0.0000 C   0  0  0  0  0  0  0  0  0  0  0  0
   -4.0247   -0.8345    0.0000 O   0  0  0  0  0  0  0  0  0  0  0  0
   -2.5958   -0.8345    0.0000 O   0  0  0  0  0  0  0  0  0  0  0  0
   -3.3103    2.3947    0.0000 N   0  0  0  0  0  0  0  0  0  0  0  0
   -2.5958    2.8072    0.0000 C   0  0  0  0  0  0  0  0  0  0  0  0
   -1.8813    2.3947    0.0000 O   0  0  0  0  0  0  0  0  0  0  0  0
   -2.5958    3.6322    0.0000 C   0  0  0  0  0  0  0  0  0  0  0  0
   -3.3103    4.0447    0.0000 O   0  0  0  0  0  0  0  0  0  0  0  0
   -0.7151    2.9947    0.0000 N   0  0  0  0  0  0  0  0  0  0  0  0
    0.0918    3.1662    0.0000 C   0  0  0  0  0  0  0  0  0  0  0  0
    0.1781    3.9867    0.0000 C   0  0  0  0  0  0  0  0  0  0  0  0
   -0.5756    4.3223    0.0000 N   0  0  0  0  0  0  0  0  0  0  0  0
   -1.1276    3.7092    0.0000 C   0  0  0  0  0  0  0  0  0  0  0  0
   -1.8813    4.0447    0.0000 C   0  0  0  0  0  0  0  0  0  0  0  0
   -1.7951    4.8652    0.0000 C   0  0  0  0  0  0  0  0  0  0  0  0
   -0.9881    5.0367    0.0000 C   0  0  0  0  0  0  0  0  0  0  0  0
   -0.6526    5.7904    0.0000 C   0  0  0  0  0  0  0  0  0  0  0  0
    0.1679    5.8767    0.0000 O   0  0  0  0  0  0  0  0  0  0  0  0
   -1.1375    6.4579    0.0000 N   0  0  0  0  0  0  0  0  0  0  0  0
   -0.8019    7.2115    0.0000 C   0  0  0  0  0  0  0  0  0  0  0  0
   -1.2868    7.8790    0.0000 C   0  0  0  0  0  0  0  0  0  0  0  0
   -0.9513    8.6327    0.0000 C   0  0  0  0  0  0  0  0  0  0  0  0
   -0.1308    8.7189    0.0000 C   0  0  0  0  0  0  0  0  0  0  0  0
    0.3541    8.0515    0.0000 C   0  0  0  0  0  0  0  0  0  0  0  0
    0.0186    7.2978    0.0000 C   0  0  0  0  0  0  0  0  0  0  0  0
   -1.4362    9.3001    0.0000 F   0  0  0  0  0  0  0  0  0  0  0  0
    0.2048    9.4726    0.0000 F   0  0  0  0  0  0  0  0  0  0  0  0
    1.1746    8.1377    0.0000 F   0  0  0  0  0  0  0  0  0  0  0  0
   -2.4082    5.4173    0.0000 C   0  0  0  0  0  0  0  0  0  0  0  0
  1  2  1  0  0  0  0
  1  3  1  0  0  0  0
  3  4  1  0  0  0  0
  2  4  1  0  0  0  0
  4  5  1  0  0  0  0
  1  5  1  0  0  0  0
  6  7  1  0  0  0  0
  6  8  2  0  0  0  0
  1  6  1  0  0  0  0
 10 11  2  0  0  0  0
 10 12  1  0  0  0  0
 12 13  2  0  0  0  0
 18 14  1  0  0  0  0
 14 15  1  0  0  0  0
 15 16  1  0  0  0  0
 17 16  1  0  0  0  0
 17 18  1  0  0  0  0
 18 19  2  0  0  0  0
 19 20  1  0  0  0  0
 20 21  2  0  0  0  0
 17 21  1  0  0  0  0
 22 23  2  0  0  0  0
 25 26  2  0  0  0  0
 26 27  1  0  0  0  0
 27 28  2  0  0  0  0
 28 29  1  0  0  0  0
 29 30  2  0  0  0  0
 25 30  1  0  0  0  0
 27 31  1  0  0  0  0
 28 32  1  0  0  0  0
 29 33  1  0  0  0  0
 24 25  1  0  0  0  0
 22 24  1  0  0  0  0
 21 22  1  0  0  0  0
 20 34  1  0  0  0  0
 12 19  1  0  0  0  0
  9 10  1  0  0  0  0
  4  9  1  0  0  0  0
M  END
>  <type>
systematic

$$$$
7H-Cyclopenta[b]pyridinium, 1-[[7-[[(2-amino-4-thiazolyl)oxoacetyl]amino]-2-carboxy-8-oxo-5-thia-1-azabicyclo[4.2.0]oct-2-en-3-yl]methyl]-, inner salt, (6R-trans)-
  Mrv2401 11032421232D          

 33 37  0  0  0  0            999 V2000
    5.9773   -2.6260    0.0000 N   0  3  0  0  0  0  0  0  0  0  0  0
    7.4062   -3.4510    0.0000 C   0  0  0  0  0  0  0  0  0  0  0  0
    6.6918   -3.8635    0.0000 C   0  0  0  0  0  0  0  0  0  0  0  0
    5.9773   -3.4510    0.0000 C   0  0  0  0  0  0  0  0  0  0  0  0
    6.6918   -2.2135    0.0000 C   0  0  0  0  0  0  0  0  0  0  0  0
    7.4062   -2.6260    0.0000 C   0  0  0  0  0  0  0  0  0  0  0  0
    8.0193   -2.0740    0.0000 C   0  0  0  0  0  0  0  0  0  0  0  0
    7.6838   -1.3203    0.0000 C   0  0  0  0  0  0  0  0  0  0  0  0
    6.8633   -1.4065    0.0000 C   0  0  0  0  0  0  0  0  0  0  0  0
    5.2628   -2.2135    0.0000 C   0  0  0  0  0  0  0  0  0  0  0  0
    3.1194   -2.6260    0.0000 N   0  0  0  0  0  0  0  0  0  0  0  0
    3.8339   -2.2135    0.0000 C   0  0  0  0  0  0  0  0  0  0  0  0
    4.5483   -2.6260    0.0000 C   0  0  0  0  0  0  0  0  0  0  0  0
    4.5483   -3.4510    0.0000 C   0  0  0  0  0  0  0  0  0  0  0  0
    3.8339   -3.8635    0.0000 S   0  0  0  0  0  0  0  0  0  0  0  0
    3.1194   -3.4510    0.0000 C   0  0  0  0  0  0  0  0  0  0  0  0
    2.2944   -3.4510    0.0000 C   0  0  0  0  0  0  0  0  0  0  0  0
    2.2944   -2.6260    0.0000 C   0  0  0  0  0  0  0  0  0  0  0  0
    1.7110   -2.0426    0.0000 O   0  0  0  0  0  0  0  0  0  0  0  0
    3.8339   -1.3885    0.0000 C   0  0  0  0  0  0  0  0  0  0  0  0
    4.5483   -0.9760    0.0000 O   0  0  0  0  0  0  0  0  0  0  0  0
    3.1194   -0.9760    0.0000 O   0  0  0  0  0  0  0  0  0  0  0  0
    1.7110   -4.0343    0.0000 N   0  0  0  0  0  0  0  0  0  0  0  0
    1.9246   -4.8312    0.0000 C   0  0  0  0  0  0  0  0  0  0  0  0
    2.7214   -5.0448    0.0000 O   0  0  0  0  0  0  0  0  0  0  0  0
    1.3412   -5.4146    0.0000 C   0  0  0  0  0  0  0  0  0  0  0  0
    0.5443   -5.2011    0.0000 O   0  0  0  0  0  0  0  0  0  0  0  0
    2.2818   -7.3310    0.0000 S   0  0  0  0  0  0  0  0  0  0  0  0
    1.4849   -7.5445    0.0000 C   0  0  0  0  0  0  0  0  0  0  0  0
    1.0355   -6.8526    0.0000 N   0  0  0  0  0  0  0  0  0  0  0  0
    1.5547   -6.2115    0.0000 C   0  0  0  0  0  0  0  0  0  0  0  0
    2.3249   -6.5071    0.0000 C   0  0  0  0  0  0  0  0  0  0  0  0
    1.1892   -8.3147    0.0000 N   0  0  0  0  0  0  0  0  0  0  0  0
  1  5  1  0  0  0  0
  6  2  1  0  0  0  0
  2  3  2  0  0  0  0
  3  4  1  0  0  0  0
  1  4  2  0  0  0  0
  5  6  2  0  0  0  0
  6  7  1  0  0  0  0
  7  8  2  0  0  0  0
  8  9  1  0  0  0  0
  5  9  1  0  0  0  0
 11 12  1  0  0  0  0
 12 13  2  0  0  0  0
 13 14  1  0  0  0  0
 14 15  1  0  0  0  0
 15 16  1  0  0  0  0
 11 16  1  0  0  0  0
 16 17  1  0  0  0  0
 17 18  1  0  0  0  0
 11 18  1  0  0  0  0
 18 19  2  0  0  0  0
 20 21  1  0  0  0  0
 20 22  2  0  0  0  0
 12 20  1  0  0  0  0
 24 25  2  0  0  0  0
 24 26  1  0  0  0  0
 26 27  2  0  0  0  0
 28 29  1  0  0  0  0
 29 30  2  0  0  0  0
 30 31  1  0  0  0  0
 31 32  2  0  0  0  0
 28 32  1  0  0  0  0
 29 33  1  0  0  0  0
 26 31  1  0  0  0  0
 23 24  1  0  0  0  0
 17 23  1  0  0  0  0
 10 13  1  0  0  0  0
  1 10  1  0  0  0  0
M  CHG  1   1   1
M  END
>  <Ambiguous>
ambiguous

>  <type>
systematic

$$$$
5-Thia-1-azabicyclo[4.2.0]oct-2-ene-2-carboxylic acid, 7-[[(2-amino-4-thiazolyl)hydroxyacetyl]amino]-3-[[(5-methyl-1,3,4-oxadiazol-2-yl)thio]methyl]-8-oxo-, [6 R-(6α,7β)]-
  Mrv2401 11032421242D          

 31 34  0  0  1  0            999 V2000
    1.6905   -0.1510    0.0000 N   0  0  0  0  0  0  0  0  0  0  0  0
    2.4049    0.2615    0.0000 C   0  0  0  0  0  0  0  0  0  0  0  0
    3.1194   -0.1510    0.0000 C   0  0  0  0  0  0  0  0  0  0  0  0
    3.1194   -0.9760    0.0000 C   0  0  0  0  0  0  0  0  0  0  0  0
    2.4049   -1.3885    0.0000 S   0  0  0  0  0  0  0  0  0  0  0  0
    1.6905   -0.9760    0.0000 C   0  0  2  0  0  0  0  0  0  0  0  0
    0.8655   -0.9760    0.0000 C   0  0  2  0  0  0  0  0  0  0  0  0
    0.8655   -0.1510    0.0000 C   0  0  0  0  0  0  0  0  0  0  0  0
    2.4049    1.0865    0.0000 C   0  0  0  0  0  0  0  0  0  0  0  0
    3.1194    1.4990    0.0000 O   0  0  0  0  0  0  0  0  0  0  0  0
    1.6905    1.4990    0.0000 O   0  0  0  0  0  0  0  0  0  0  0  0
    0.2821    0.4324    0.0000 O   0  0  0  0  0  0  0  0  0  0  0  0
    3.8339    0.2615    0.0000 C   0  0  0  0  0  0  0  0  0  0  0  0
    4.5483   -0.1510    0.0000 S   0  0  0  0  0  0  0  0  0  0  0  0
    6.0165   -0.0740    0.0000 O   0  0  0  0  0  0  0  0  0  0  0  0
    5.2628    0.2615    0.0000 C   0  0  0  0  0  0  0  0  0  0  0  0
    5.3490    1.0820    0.0000 N   0  0  0  0  0  0  0  0  0  0  0  0
    6.1560    1.2535    0.0000 N   0  0  0  0  0  0  0  0  0  0  0  0
    6.5685    0.5391    0.0000 C   0  0  0  0  0  0  0  0  0  0  0  0
    7.3890    0.4528    0.0000 C   0  0  0  0  0  0  0  0  0  0  0  0
    0.2821   -1.5593    0.0000 N   0  0  0  0  0  0  0  0  0  0  0  0
    0.4956   -2.3562    0.0000 C   0  0  0  0  0  0  0  0  0  0  0  0
    1.2925   -2.5698    0.0000 O   0  0  0  0  0  0  0  0  0  0  0  0
   -0.0877   -2.9396    0.0000 C   0  0  0  0  0  0  0  0  0  0  0  0
   -0.8846   -2.7261    0.0000 O   0  0  0  0  0  0  0  0  0  0  0  0
    0.8528   -4.8560    0.0000 S   0  0  0  0  0  0  0  0  0  0  0  0
    0.0559   -5.0695    0.0000 C   0  0  0  0  0  0  0  0  0  0  0  0
   -0.3934   -4.3776    0.0000 N   0  0  0  0  0  0  0  0  0  0  0  0
    0.1258   -3.7365    0.0000 C   0  0  0  0  0  0  0  0  0  0  0  0
    0.8960   -4.0321    0.0000 C   0  0  0  0  0  0  0  0  0  0  0  0
   -0.2397   -5.8397    0.0000 N   0  0  0  0  0  0  0  0  0  0  0  0
  1  2  1  0  0  0  0
  2  3  2  0  0  0  0
  3  4  1  0  0  0  0
  4  5  1  0  0  0  0
  6  5  1  0  0  0  0
  6  1  1  6  0  0  0
  6  7  1  0  0  0  0
  7  8  1  0  0  0  0
  1  8  1  0  0  0  0
  9 10  1  0  0  0  0
  9 11  2  0  0  0  0
  2  9  1  0  0  0  0
  8 12  2  0  0  0  0
 15 16  1  0  0  0  0
 16 17  2  0  0  0  0
 17 18  1  0  0  0  0
 18 19  2  0  0  0  0
 15 19  1  0  0  0  0
 19 20  1  0  0  0  0
 14 16  1  0  0  0  0
 13 14  1  0  0  0  0
  3 13  1  0  0  0  0
 22 23  2  0  0  0  0
 22 24  1  0  0  0  0
 24 25  1  0  0  0  0
 26 27  1  0  0  0  0
 27 28  2  0  0  0  0
 28 29  1  0  0  0  0
 29 30  2  0  0  0  0
 26 30  1  0  0  0  0
 27 31  1  0  0  0  0
 24 29  1  0  0  0  0
 21 22  1  0  0  0  0
  7 21  1  1  0  0  0
M  END
>  <type>
systematic

$$$$
5-Thia-1-azabicyclo[4.2.0]oct-2-ene-2-carboxylic acid, 7-[[(2-amino-4-thiazolyl)oxoacetyl]amino]-3-[[(5-methyl-1,3,4-thiadiazol-2-yl)thio]methyl]-8-oxo-, (6R-trans)-
  Mrv2401 11032421282D          

 31 34  0  0  1  0            999 V2000
    1.6905   -0.1510    0.0000 N   0  0  0  0  0  0  0  0  0  0  0  0
    2.4049    0.2615    0.0000 C   0  0  0  0  0  0  0  0  0  0  0  0
    3.1194   -0.1510    0.0000 C   0  0  0  0  0  0  0  0  0  0  0  0
    3.1194   -0.9760    0.0000 C   0  0  0  0  0  0  0  0  0  0  0  0
    2.4049   -1.3885    0.0000 S   0  0  0  0  0  0  0  0  0  0  0  0
    1.6905   -0.9760    0.0000 C   0  0  2  0  0  0  0  0  0  0  0  0
    0.8655   -0.9760    0.0000 C   0  0  0  0  0  0  0  0  0  0  0  0
    0.8655   -0.1510    0.0000 C   0  0  0  0  0  0  0  0  0  0  0  0
    2.4049    1.0865    0.0000 C   0  0  0  0  0  0  0  0  0  0  0  0
    3.1194    1.4990    0.0000 O   0  0  0  0  0  0  0  0  0  0  0  0
    1.6905    1.4990    0.0000 O   0  0  0  0  0  0  0  0  0  0  0  0
    0.2821    0.4324    0.0000 O   0  0  0  0  0  0  0  0  0  0  0  0
    3.8339    0.2615    0.0000 C   0  0  0  0  0  0  0  0  0  0  0  0
    4.5483   -0.1510    0.0000 S   0  0  0  0  0  0  0  0  0  0  0  0
    6.0165   -0.0740    0.0000 S   0  0  0  0  0  0  0  0  0  0  0  0
    5.2628    0.2615    0.0000 C   0  0  0  0  0  0  0  0  0  0  0  0
    5.3490    1.0820    0.0000 N   0  0  0  0  0  0  0  0  0  0  0  0
    6.1560    1.2535    0.0000 N   0  0  0  0  0  0  0  0  0  0  0  0
    6.5685    0.5391    0.0000 C   0  0  0  0  0  0  0  0  0  0  0  0
    7.3890    0.4528    0.0000 C   0  0  0  0  0  0  0  0  0  0  0  0
    0.2821   -1.5593    0.0000 N   0  0  0  0  0  0  0  0  0  0  0  0
    0.4956   -2.3562    0.0000 C   0  0  0  0  0  0  0  0  0  0  0  0
    1.2925   -2.5698    0.0000 O   0  0  0  0  0  0  0  0  0  0  0  0
   -0.0877   -2.9396    0.0000 C   0  0  0  0  0  0  0  0  0  0  0  0
   -0.8846   -2.7261    0.0000 O   0  0  0  0  0  0  0  0  0  0  0  0
    0.8528   -4.8560    0.0000 S   0  0  0  0  0  0  0  0  0  0  0  0
    0.0559   -5.0695    0.0000 C   0  0  0  0  0  0  0  0  0  0  0  0
   -0.3934   -4.3776    0.0000 N   0  0  0  0  0  0  0  0  0  0  0  0
    0.1258   -3.7365    0.0000 C   0  0  0  0  0  0  0  0  0  0  0  0
    0.8960   -4.0321    0.0000 C   0  0  0  0  0  0  0  0  0  0  0  0
   -0.2397   -5.8397    0.0000 N   0  0  0  0  0  0  0  0  0  0  0  0
  1  2  1  0  0  0  0
  2  3  2  0  0  0  0
  3  4  1  0  0  0  0
  4  5  1  0  0  0  0
  6  5  1  0  0  0  0
  6  1  1  6  0  0  0
  6  7  1  0  0  0  0
  7  8  1  0  0  0  0
  1  8  1  0  0  0  0
  9 10  1  0  0  0  0
  9 11  2  0  0  0  0
  2  9  1  0  0  0  0
  8 12  2  0  0  0  0
 15 16  1  0  0  0  0
 16 17  2  0  0  0  0
 17 18  1  0  0  0  0
 18 19  2  0  0  0  0
 15 19  1  0  0  0  0
 19 20  1  0  0  0  0
 14 16  1  0  0  0  0
 13 14  1  0  0  0  0
  3 13  1  0  0  0  0
 22 23  2  0  0  0  0
 22 24  1  0  0  0  0
 24 25  2  0  0  0  0
 26 27  1  0  0  0  0
 27 28  2  0  0  0  0
 28 29  1  0  0  0  0
 29 30  2  0  0  0  0
 26 30  1  0  0  0  0
 27 31  1  0  0  0  0
 24 29  1  0  0  0  0
 21 22  1  0  0  0  0
  7 21  1  0  0  0  0
M  END
>  <type>
systematic

$$$$
5-Thia-1-azabicyclo[4.2.0]oct-2-ene-2-carboxylic acid, 7-[[hydroxy[2-(methylamino)-4-thiazolyl]acetyl]amino]-3-[[(1-methyl-1H-tetrazol-5-yl)thio]methyl]-8-oxo-, [6 R-(6α,7β)]-
  Mrv2401 11032421282D          

 32 35  0  0  1  0            999 V2000
    1.6905   -0.1510    0.0000 N   0  0  0  0  0  0  0  0  0  0  0  0
    2.4049    0.2615    0.0000 C   0  0  0  0  0  0  0  0  0  0  0  0
    3.1194   -0.1510    0.0000 C   0  0  0  0  0  0  0  0  0  0  0  0
    3.1194   -0.9760    0.0000 C   0  0  0  0  0  0  0  0  0  0  0  0
    2.4049   -1.3885    0.0000 S   0  0  0  0  0  0  0  0  0  0  0  0
    1.6905   -0.9760    0.0000 C   0  0  2  0  0  0  0  0  0  0  0  0
    0.8655   -0.9760    0.0000 C   0  0  2  0  0  0  0  0  0  0  0  0
    0.8655   -0.1510    0.0000 C   0  0  0  0  0  0  0  0  0  0  0  0
    2.4049    1.0865    0.0000 C   0  0  0  0  0  0  0  0  0  0  0  0
    3.1194    1.4990    0.0000 O   0  0  0  0  0  0  0  0  0  0  0  0
    1.6905    1.4990    0.0000 O   0  0  0  0  0  0  0  0  0  0  0  0
    0.2821    0.4324    0.0000 O   0  0  0  0  0  0  0  0  0  0  0  0
    3.8339    0.2615    0.0000 C   0  0  0  0  0  0  0  0  0  0  0  0
    4.5483   -0.1510    0.0000 S   0  0  0  0  0  0  0  0  0  0  0  0
    5.3490    1.0820    0.0000 N   0  0  0  0  0  0  0  0  0  0  0  0
    6.1560    1.2535    0.0000 N   0  0  0  0  0  0  0  0  0  0  0  0
    6.5685    0.5391    0.0000 N   0  0  0  0  0  0  0  0  0  0  0  0
    6.0165   -0.0740    0.0000 N   0  0  0  0  0  0  0  0  0  0  0  0
    5.2628    0.2615    0.0000 C   0  0  0  0  0  0  0  0  0  0  0  0
    4.7360    1.6340    0.0000 C   0  0  0  0  0  0  0  0  0  0  0  0
    0.2821   -1.5593    0.0000 N   0  0  0  0  0  0  0  0  0  0  0  0
    0.4956   -2.3562    0.0000 C   0  0  0  0  0  0  0  0  0  0  0  0
    1.2925   -2.5698    0.0000 O   0  0  0  0  0  0  0  0  0  0  0  0
   -0.0877   -2.9396    0.0000 C   0  0  0  0  0  0  0  0  0  0  0  0
    0.8528   -4.8560    0.0000 S   0  0  0  0  0  0  0  0  0  0  0  0
    0.0559   -5.0695    0.0000 C   0  0  0  0  0  0  0  0  0  0  0  0
   -0.3934   -4.3776    0.0000 N   0  0  0  0  0  0  0  0  0  0  0  0
    0.1258   -3.7365    0.0000 C   0  0  0  0  0  0  0  0  0  0  0  0
    0.8960   -4.0321    0.0000 C   0  0  0  0  0  0  0  0  0  0  0  0
   -0.2397   -5.8397    0.0000 N   0  0  0  0  0  0  0  0  0  0  0  0
    0.2795   -6.4809    0.0000 C   0  0  0  0  0  0  0  0  0  0  0  0
   -0.8846   -2.7261    0.0000 O   0  0  0  0  0  0  0  0  0  0  0  0
  1  2  1  0  0  0  0
  2  3  2  0  0  0  0
  3  4  1  0  0  0  0
  4  5  1  0  0  0  0
  6  5  1  0  0  0  0
  6  1  1  6  0  0  0
  6  7  1  0  0  0  0
  7  8  1  0  0  0  0
  1  8  1  0  0  0  0
  9 10  1  0  0  0  0
  9 11  2  0  0  0  0
  2  9  1  0  0  0  0
  8 12  2  0  0  0  0
 15 16  1  0  0  0  0
 16 17  2  0  0  0  0
 17 18  1  0  0  0  0
 18 19  2  0  0  0  0
 15 19  1  0  0  0  0
 15 20  1  0  0  0  0
 14 19  1  0  0  0  0
 13 14  1  0  0  0  0
  3 13  1  0  0  0  0
 22 23  2  0  0  0  0
 22 24  1  0  0  0  0
 25 26  1  0  0  0  0
 26 27  2  0  0  0  0
 27 28  1  0  0  0  0
 28 29  2  0  0  0  0
 25 29  1  0  0  0  0
 30 31  1  0  0  0  0
 26 30  1  0  0  0  0
 24 28  1  0  0  0  0
 24 32  1  0  0  0  0
 21 22  1  0  0  0  0
  7 21  1  1  0  0  0
M  END
>  <type>
systematic

$$$$
5-Thia-1-azabicyclo[4.2.0]oct-2-ene-2-carboxylic acid, 7-[[(5-amino-1,3,4-thiadiazol-2-yl)oxoacetyl]amino]-3-[[(5-methyl-1,3,4-oxadiazol-2-yl)thio]methyl]-8-oxo-,(6R-trans)-
  Mrv2401 11032421292D          

 31 34  0  0  1  0            999 V2000
    1.6905   -0.1510    0.0000 N   0  0  0  0  0  0  0  0  0  0  0  0
    2.4049    0.2615    0.0000 C   0  0  0  0  0  0  0  0  0  0  0  0
    3.1194   -0.1510    0.0000 C   0  0  0  0  0  0  0  0  0  0  0  0
    3.1194   -0.9760    0.0000 C   0  0  0  0  0  0  0  0  0  0  0  0
    2.4049   -1.3885    0.0000 S   0  0  0  0  0  0  0  0  0  0  0  0
    1.6905   -0.9760    0.0000 C   0  0  2  0  0  0  0  0  0  0  0  0
    0.8655   -0.9760    0.0000 C   0  0  0  0  0  0  0  0  0  0  0  0
    0.8655   -0.1510    0.0000 C   0  0  0  0  0  0  0  0  0  0  0  0
    2.4049    1.0865    0.0000 C   0  0  0  0  0  0  0  0  0  0  0  0
    3.1194    1.4990    0.0000 O   0  0  0  0  0  0  0  0  0  0  0  0
    1.6905    1.4990    0.0000 O   0  0  0  0  0  0  0  0  0  0  0  0
    0.2821    0.4324    0.0000 O   0  0  0  0  0  0  0  0  0  0  0  0
    3.8339    0.2615    0.0000 C   0  0  0  0  0  0  0  0  0  0  0  0
    4.5483   -0.1510    0.0000 S   0  0  0  0  0  0  0  0  0  0  0  0
    6.0165   -0.0740    0.0000 O   0  0  0  0  0  0  0  0  0  0  0  0
    5.2628    0.2615    0.0000 C   0  0  0  0  0  0  0  0  0  0  0  0
    5.3490    1.0820    0.0000 N   0  0  0  0  0  0  0  0  0  0  0  0
    6.1560    1.2535    0.0000 N   0  0  0  0  0  0  0  0  0  0  0  0
    6.5685    0.5391    0.0000 C   0  0  0  0  0  0  0  0  0  0  0  0
    7.3890    0.4528    0.0000 C   0  0  0  0  0  0  0  0  0  0  0  0
    0.2821   -1.5593    0.0000 N   0  0  0  0  0  0  0  0  0  0  0  0
    0.4956   -2.3562    0.0000 C   0  0  0  0  0  0  0  0  0  0  0  0
    1.2925   -2.5698    0.0000 O   0  0  0  0  0  0  0  0  0  0  0  0
   -0.0877   -2.9396    0.0000 C   0  0  0  0  0  0  0  0  0  0  0  0
   -0.8846   -2.7261    0.0000 O   0  0  0  0  0  0  0  0  0  0  0  0
   -0.3934   -4.3776    0.0000 S   0  0  0  0  0  0  0  0  0  0  0  0
    0.1258   -3.7365    0.0000 C   0  0  0  0  0  0  0  0  0  0  0  0
    0.8960   -4.0321    0.0000 N   0  0  0  0  0  0  0  0  0  0  0  0
    0.8528   -4.8560    0.0000 N   0  0  0  0  0  0  0  0  0  0  0  0
    0.0559   -5.0695    0.0000 C   0  0  0  0  0  0  0  0  0  0  0  0
   -0.2397   -5.8397    0.0000 N   0  0  0  0  0  0  0  0  0  0  0  0
  1  2  1  0  0  0  0
  2  3  2  0  0  0  0
  3  4  1  0  0  0  0
  4  5  1  0  0  0  0
  6  5  1  0  0  0  0
  6  1  1  6  0  0  0
  6  7  1  0  0  0  0
  7  8  1  0  0  0  0
  1  8  1  0  0  0  0
  9 10  1  0  0  0  0
  9 11  2  0  0  0  0
  2  9  1  0  0  0  0
  8 12  2  0  0  0  0
 15 16  1  0  0  0  0
 16 17  2  0  0  0  0
 17 18  1  0  0  0  0
 18 19  2  0  0  0  0
 15 19  1  0  0  0  0
 19 20  1  0  0  0  0
 14 16  1  0  0  0  0
 13 14  1  0  0  0  0
  3 13  1  0  0  0  0
 22 23  2  0  0  0  0
 22 24  1  0  0  0  0
 24 25  2  0  0  0  0
 26 27  1  0  0  0  0
 27 28  2  0  0  0  0
 28 29  1  0  0  0  0
 29 30  2  0  0  0  0
 26 30  1  0  0  0  0
 30 31  1  0  0  0  0
 24 27  1  0  0  0  0
 21 22  1  0  0  0  0
  7 21  1  0  0  0  0
M  END
>  <type>
systematic

$$$$
5-Thia-1-azabicyclo[4.2.0]oct-2-ene-2-carboxylic acid, 7-[[(5-amino-1,3,4-thiadiazol-2-yl)oxoacetyl]amino]-3-[[(1-methyl-1H-tetrazol-5-yl)thio]methyl]-8-oxo-, (6R-trans)-
  Mrv2401 11032421292D          

 31 34  0  0  1  0            999 V2000
    1.6905   -0.1510    0.0000 N   0  0  0  0  0  0  0  0  0  0  0  0
    2.4049    0.2615    0.0000 C   0  0  0  0  0  0  0  0  0  0  0  0
    3.1194   -0.1510    0.0000 C   0  0  0  0  0  0  0  0  0  0  0  0
    3.1194   -0.9760    0.0000 C   0  0  0  0  0  0  0  0  0  0  0  0
    2.4049   -1.3885    0.0000 S   0  0  0  0  0  0  0  0  0  0  0  0
    1.6905   -0.9760    0.0000 C   0  0  2  0  0  0  0  0  0  0  0  0
    0.8655   -0.9760    0.0000 C   0  0  0  0  0  0  0  0  0  0  0  0
    0.8655   -0.1510    0.0000 C   0  0  0  0  0  0  0  0  0  0  0  0
    2.4049    1.0865    0.0000 C   0  0  0  0  0  0  0  0  0  0  0  0
    3.1194    1.4990    0.0000 O   0  0  0  0  0  0  0  0  0  0  0  0
    1.6905    1.4990    0.0000 O   0  0  0  0  0  0  0  0  0  0  0  0
    0.2821    0.4324    0.0000 O   0  0  0  0  0  0  0  0  0  0  0  0
    3.8339    0.2615    0.0000 C   0  0  0  0  0  0  0  0  0  0  0  0
    4.5483   -0.1510    0.0000 S   0  0  0  0  0  0  0  0  0  0  0  0
    5.3490    1.0820    0.0000 N   0  0  0  0  0  0  0  0  0  0  0  0
    6.1560    1.2535    0.0000 N   0  0  0  0  0  0  0  0  0  0  0  0
    6.5685    0.5391    0.0000 N   0  0  0  0  0  0  0  0  0  0  0  0
    6.0165   -0.0740    0.0000 N   0  0  0  0  0  0  0  0  0  0  0  0
    5.2628    0.2615    0.0000 C   0  0  0  0  0  0  0  0  0  0  0  0
    4.7360    1.6340    0.0000 C   0  0  0  0  0  0  0  0  0  0  0  0
    0.2821   -1.5593    0.0000 N   0  0  0  0  0  0  0  0  0  0  0  0
    0.4956   -2.3562    0.0000 C   0  0  0  0  0  0  0  0  0  0  0  0
    1.2925   -2.5698    0.0000 O   0  0  0  0  0  0  0  0  0  0  0  0
   -0.0877   -2.9396    0.0000 C   0  0  0  0  0  0  0  0  0  0  0  0
   -0.8846   -2.7261    0.0000 O   0  0  0  0  0  0  0  0  0  0  0  0
   -0.3934   -4.3776    0.0000 S   0  0  0  0  0  0  0  0  0  0  0  0
    0.1258   -3.7365    0.0000 C   0  0  0  0  0  0  0  0  0  0  0  0
    0.8960   -4.0321    0.0000 N   0  0  0  0  0  0  0  0  0  0  0  0
    0.8528   -4.8560    0.0000 N   0  0  0  0  0  0  0  0  0  0  0  0
    0.0559   -5.0695    0.0000 C   0  0  0  0  0  0  0  0  0  0  0  0
   -0.2397   -5.8397    0.0000 N   0  0  0  0  0  0  0  0  0  0  0  0
  1  2  1  0  0  0  0
  2  3  2  0  0  0  0
  3  4  1  0  0  0  0
  4  5  1  0  0  0  0
  6  5  1  0  0  0  0
  6  1  1  6  0  0  0
  6  7  1  0  0  0  0
  7  8  1  0  0  0  0
  1  8  1  0  0  0  0
  9 10  1  0  0  0  0
  9 11  2  0  0  0  0
  2  9  1  0  0  0  0
  8 12  2  0  0  0  0
 15 16  1  0  0  0  0
 16 17  2  0  0  0  0
 17 18  1  0  0  0  0
 18 19  2  0  0  0  0
 15 19  1  0  0  0  0
 15 20  1  0  0  0  0
 14 19  1  0  0  0  0
 13 14  1  0  0  0  0
  3 13  1  0  0  0  0
 22 23  2  0  0  0  0
 22 24  1  0  0  0  0
 24 25  2  0  0  0  0
 26 27  1  0  0  0  0
 27 28  2  0  0  0  0
 28 29  1  0  0  0  0
 29 30  2  0  0  0  0
 26 30  1  0  0  0  0
 30 31  1  0  0  0  0
 24 27  1  0  0  0  0
 21 22  1  0  0  0  0
  7 21  1  0  0  0  0
M  END
>  <type>
systematic

$$$$
5-Thia-1-azabicyclo[4.2.0]oct-2-ene-2-carboxylic acid, 7-[[(2-amino-4-thiazolyl)oxoacetyl]amino]-3-[[(1-methyl-1H-tetrazol-5-yl)thio]methyl]-8-oxo-, (6R-trans)-
  Mrv2401 11032421302D          

 31 34  0  0  1  0            999 V2000
    1.6905   -0.1510    0.0000 N   0  0  0  0  0  0  0  0  0  0  0  0
    2.4049    0.2615    0.0000 C   0  0  0  0  0  0  0  0  0  0  0  0
    3.1194   -0.1510    0.0000 C   0  0  0  0  0  0  0  0  0  0  0  0
    3.1194   -0.9760    0.0000 C   0  0  0  0  0  0  0  0  0  0  0  0
    2.4049   -1.3885    0.0000 S   0  0  0  0  0  0  0  0  0  0  0  0
    1.6905   -0.9760    0.0000 C   0  0  2  0  0  0  0  0  0  0  0  0
    0.8655   -0.9760    0.0000 C   0  0  0  0  0  0  0  0  0  0  0  0
    0.8655   -0.1510    0.0000 C   0  0  0  0  0  0  0  0  0  0  0  0
    2.4049    1.0865    0.0000 C   0  0  0  0  0  0  0  0  0  0  0  0
    3.1194    1.4990    0.0000 O   0  0  0  0  0  0  0  0  0  0  0  0
    1.6905    1.4990    0.0000 O   0  0  0  0  0  0  0  0  0  0  0  0
    0.2821    0.4324    0.0000 O   0  0  0  0  0  0  0  0  0  0  0  0
    3.8339    0.2615    0.0000 C   0  0  0  0  0  0  0  0  0  0  0  0
    4.5483   -0.1510    0.0000 S   0  0  0  0  0  0  0  0  0  0  0  0
    5.3490    1.0820    0.0000 N   0  0  0  0  0  0  0  0  0  0  0  0
    6.1560    1.2535    0.0000 N   0  0  0  0  0  0  0  0  0  0  0  0
    6.5685    0.5391    0.0000 N   0  0  0  0  0  0  0  0  0  0  0  0
    6.0165   -0.0740    0.0000 N   0  0  0  0  0  0  0  0  0  0  0  0
    5.2628    0.2615    0.0000 C   0  0  0  0  0  0  0  0  0  0  0  0
    4.7360    1.6340    0.0000 C   0  0  0  0  0  0  0  0  0  0  0  0
    0.2821   -1.5593    0.0000 N   0  0  0  0  0  0  0  0  0  0  0  0
    0.4956   -2.3562    0.0000 C   0  0  0  0  0  0  0  0  0  0  0  0
    1.2925   -2.5698    0.0000 O   0  0  0  0  0  0  0  0  0  0  0  0
   -0.0877   -2.9396    0.0000 C   0  0  0  0  0  0  0  0  0  0  0  0
   -0.8846   -2.7261    0.0000 O   0  0  0  0  0  0  0  0  0  0  0  0
    0.8528   -4.8560    0.0000 S   0  0  0  0  0  0  0  0  0  0  0  0
    0.0559   -5.0695    0.0000 C   0  0  0  0  0  0  0  0  0  0  0  0
   -0.3934   -4.3776    0.0000 N   0  0  0  0  0  0  0  0  0  0  0  0
    0.1258   -3.7365    0.0000 C   0  0  0  0  0  0  0  0  0  0  0  0
    0.8960   -4.0321    0.0000 C   0  0  0  0  0  0  0  0  0  0  0  0
   -0.2397   -5.8397    0.0000 N   0  0  0  0  0  0  0  0  0  0  0  0
  1  2  1  0  0  0  0
  2  3  2  0  0  0  0
  3  4  1  0  0  0  0
  4  5  1  0  0  0  0
  6  5  1  0  0  0  0
  6  1  1  6  0  0  0
  6  7  1  0  0  0  0
  7  8  1  0  0  0  0
  1  8  1  0  0  0  0
  9 10  1  0  0  0  0
  9 11  2  0  0  0  0
  2  9  1  0  0  0  0
  8 12  2  0  0  0  0
 15 16  1  0  0  0  0
 16 17  2  0  0  0  0
 17 18  1  0  0  0  0
 18 19  2  0  0  0  0
 15 19  1  0  0  0  0
 15 20  1  0  0  0  0
 14 19  1  0  0  0  0
 13 14  1  0  0  0  0
  3 13  1  0  0  0  0
 22 23  2  0  0  0  0
 22 24  1  0  0  0  0
 24 25  2  0  0  0  0
 26 27  1  0  0  0  0
 27 28  2  0  0  0  0
 28 29  1  0  0  0  0
 29 30  2  0  0  0  0
 26 30  1  0  0  0  0
 27 31  1  0  0  0  0
 24 29  1  0  0  0  0
 21 22  1  0  0  0  0
  7 21  1  0  0  0  0
M  END
>  <type>
systematic

$$$$
5-Thia-1-azabicyclo[4.2.0]oct-2-ene-2-carboxylic acid, 7-[[(2,3-dihydro-2-oxo-4-thiazolyl)oxoacetyl]amino]-3-[[(1-methyl-1H-tetrazol-5-yl)thio]methyl]-8-oxo-, (6R-trans)-
  Mrv2401 11032421312D          

 31 34  0  0  1  0            999 V2000
    1.6905   -0.1510    0.0000 N   0  0  0  0  0  0  0  0  0  0  0  0
    2.4049    0.2615    0.0000 C   0  0  0  0  0  0  0  0  0  0  0  0
    3.1194   -0.1510    0.0000 C   0  0  0  0  0  0  0  0  0  0  0  0
    3.1194   -0.9760    0.0000 C   0  0  0  0  0  0  0  0  0  0  0  0
    2.4049   -1.3885    0.0000 S   0  0  0  0  0  0  0  0  0  0  0  0
    1.6905   -0.9760    0.0000 C   0  0  2  0  0  0  0  0  0  0  0  0
    0.8655   -0.9760    0.0000 C   0  0  0  0  0  0  0  0  0  0  0  0
    0.8655   -0.1510    0.0000 C   0  0  0  0  0  0  0  0  0  0  0  0
    2.4049    1.0865    0.0000 C   0  0  0  0  0  0  0  0  0  0  0  0
    3.1194    1.4990    0.0000 O   0  0  0  0  0  0  0  0  0  0  0  0
    1.6905    1.4990    0.0000 O   0  0  0  0  0  0  0  0  0  0  0  0
    0.2821    0.4324    0.0000 O   0  0  0  0  0  0  0  0  0  0  0  0
    3.8339    0.2615    0.0000 C   0  0  0  0  0  0  0  0  0  0  0  0
    4.5483   -0.1510    0.0000 S   0  0  0  0  0  0  0  0  0  0  0  0
    5.3490    1.0820    0.0000 N   0  0  0  0  0  0  0  0  0  0  0  0
    6.1560    1.2535    0.0000 N   0  0  0  0  0  0  0  0  0  0  0  0
    6.5685    0.5391    0.0000 N   0  0  0  0  0  0  0  0  0  0  0  0
    6.0165   -0.0740    0.0000 N   0  0  0  0  0  0  0  0  0  0  0  0
    5.2628    0.2615    0.0000 C   0  0  0  0  0  0  0  0  0  0  0  0
    4.7360    1.6340    0.0000 C   0  0  0  0  0  0  0  0  0  0  0  0
    0.2821   -1.5593    0.0000 N   0  0  0  0  0  0  0  0  0  0  0  0
    0.4956   -2.3562    0.0000 C   0  0  0  0  0  0  0  0  0  0  0  0
    1.2925   -2.5698    0.0000 O   0  0  0  0  0  0  0  0  0  0  0  0
   -0.0877   -2.9396    0.0000 C   0  0  0  0  0  0  0  0  0  0  0  0
   -0.8846   -2.7261    0.0000 O   0  0  0  0  0  0  0  0  0  0  0  0
    0.8528   -4.8560    0.0000 S   0  0  0  0  0  0  0  0  0  0  0  0
    0.0559   -5.0695    0.0000 C   0  0  0  0  0  0  0  0  0  0  0  0
   -0.3934   -4.3776    0.0000 N   0  0  0  0  0  0  0  0  0  0  0  0
    0.1258   -3.7365    0.0000 C   0  0  0  0  0  0  0  0  0  0  0  0
    0.8960   -4.0321    0.0000 C   0  0  0  0  0  0  0  0  0  0  0  0
   -0.2397   -5.8397    0.0000 O   0  0  0  0  0  0  0  0  0  0  0  0
  1  2  1  0  0  0  0
  2  3  2  0  0  0  0
  3  4  1  0  0  0  0
  4  5  1  0  0  0  0
  6  5  1  0  0  0  0
  6  1  1  6  0  0  0
  6  7  1  0  0  0  0
  7  8  1  0  0  0  0
  1  8  1  0  0  0  0
  9 10  1  0  0  0  0
  9 11  2  0  0  0  0
  2  9  1  0  0  0  0
  8 12  2  0  0  0  0
 15 16  1  0  0  0  0
 16 17  2  0  0  0  0
 17 18  1  0  0  0  0
 18 19  2  0  0  0  0
 15 19  1  0  0  0  0
 15 20  1  0  0  0  0
 14 19  1  0  0  0  0
 13 14  1  0  0  0  0
  3 13  1  0  0  0  0
 22 23  2  0  0  0  0
 22 24  1  0  0  0  0
 24 25  2  0  0  0  0
 26 27  1  0  0  0  0
 27 28  1  0  0  0  0
 28 29  1  0  0  0  0
 29 30  2  0  0  0  0
 26 30  1  0  0  0  0
 27 31  2  0  0  0  0
 24 29  1  0  0  0  0
 21 22  1  0  0  0  0
  7 21  1  0  0  0  0
M  END
>  <type>
systematic

$$$$
5-Thia-1-azabicyclo[4.2.0]oct-2-ene-2-carboxylic acid, 7-[[(5-amino-1,3,4-thiadiazol-2-yl)oxoacetyl]amino]-3-[[(4-methyl-4H-1,2,4-triazol-3-yl)thio]methyl]-8-oxo-,(6R-trans)-
  Mrv2401 11032421312D          

 31 34  0  0  1  0            999 V2000
    1.6905   -0.1510    0.0000 N   0  0  0  0  0  0  0  0  0  0  0  0
    2.4049    0.2615    0.0000 C   0  0  0  0  0  0  0  0  0  0  0  0
    3.1194   -0.1510    0.0000 C   0  0  0  0  0  0  0  0  0  0  0  0
    3.1194   -0.9760    0.0000 C   0  0  0  0  0  0  0  0  0  0  0  0
    2.4049   -1.3885    0.0000 S   0  0  0  0  0  0  0  0  0  0  0  0
    1.6905   -0.9760    0.0000 C   0  0  2  0  0  0  0  0  0  0  0  0
    0.8655   -0.9760    0.0000 C   0  0  0  0  0  0  0  0  0  0  0  0
    0.8655   -0.1510    0.0000 C   0  0  0  0  0  0  0  0  0  0  0  0
    2.4049    1.0865    0.0000 C   0  0  0  0  0  0  0  0  0  0  0  0
    3.1194    1.4990    0.0000 O   0  0  0  0  0  0  0  0  0  0  0  0
    1.6905    1.4990    0.0000 O   0  0  0  0  0  0  0  0  0  0  0  0
    0.2821    0.4324    0.0000 O   0  0  0  0  0  0  0  0  0  0  0  0
    3.8339    0.2615    0.0000 C   0  0  0  0  0  0  0  0  0  0  0  0
    4.5483   -0.1510    0.0000 S   0  0  0  0  0  0  0  0  0  0  0  0
    6.5685    0.5391    0.0000 N   0  0  0  0  0  0  0  0  0  0  0  0
    6.0165   -0.0740    0.0000 N   0  0  0  0  0  0  0  0  0  0  0  0
    5.2628    0.2615    0.0000 C   0  0  0  0  0  0  0  0  0  0  0  0
    5.3490    1.0820    0.0000 N   0  0  0  0  0  0  0  0  0  0  0  0
    6.1560    1.2535    0.0000 C   0  0  0  0  0  0  0  0  0  0  0  0
    4.7360    1.6340    0.0000 C   0  0  0  0  0  0  0  0  0  0  0  0
    0.2821   -1.5593    0.0000 N   0  0  0  0  0  0  0  0  0  0  0  0
    0.4956   -2.3562    0.0000 C   0  0  0  0  0  0  0  0  0  0  0  0
    1.2925   -2.5698    0.0000 O   0  0  0  0  0  0  0  0  0  0  0  0
   -0.0877   -2.9396    0.0000 C   0  0  0  0  0  0  0  0  0  0  0  0
   -0.8846   -2.7261    0.0000 O   0  0  0  0  0  0  0  0  0  0  0  0
   -0.3934   -4.3776    0.0000 S   0  0  0  0  0  0  0  0  0  0  0  0
    0.1258   -3.7365    0.0000 C   0  0  0  0  0  0  0  0  0  0  0  0
    0.8960   -4.0321    0.0000 N   0  0  0  0  0  0  0  0  0  0  0  0
    0.8528   -4.8560    0.0000 N   0  0  0  0  0  0  0  0  0  0  0  0
    0.0559   -5.0695    0.0000 C   0  0  0  0  0  0  0  0  0  0  0  0
   -0.2397   -5.8397    0.0000 N   0  0  0  0  0  0  0  0  0  0  0  0
  1  2  1  0  0  0  0
  2  3  2  0  0  0  0
  3  4  1  0  0  0  0
  4  5  1  0  0  0  0
  6  5  1  0  0  0  0
  6  1  1  6  0  0  0
  6  7  1  0  0  0  0
  7  8  1  0  0  0  0
  1  8  1  0  0  0  0
  9 10  1  0  0  0  0
  9 11  2  0  0  0  0
  2  9  1  0  0  0  0
  8 12  2  0  0  0  0
 15 16  1  0  0  0  0
 16 17  2  0  0  0  0
 17 18  1  0  0  0  0
 18 19  1  0  0  0  0
 15 19  2  0  0  0  0
 18 20  1  0  0  0  0
 14 17  1  0  0  0  0
 13 14  1  0  0  0  0
  3 13  1  0  0  0  0
 22 23  2  0  0  0  0
 22 24  1  0  0  0  0
 24 25  2  0  0  0  0
 26 27  1  0  0  0  0
 27 28  2  0  0  0  0
 28 29  1  0  0  0  0
 29 30  2  0  0  0  0
 26 30  1  0  0  0  0
 30 31  1  0  0  0  0
 24 27  1  0  0  0  0
 21 22  1  0  0  0  0
  7 21  1  0  0  0  0
M  END
>  <type>
systematic

$$$$
5-Thia-1-azabicyclo[4.2.0]oct-2-ene-2-carboxylic acid, 7-[[(2-amino-4-thiazolyl)oxoacetyl]amino]-3-[[(4-methyl-4H-1,2,4-triazol-3-yl)thio]methyl]-8-oxo-, (6R-trans)-
  Mrv2401 11032421322D          

 31 34  0  0  1  0            999 V2000
    1.6905   -0.1510    0.0000 N   0  0  0  0  0  0  0  0  0  0  0  0
    2.4049    0.2615    0.0000 C   0  0  0  0  0  0  0  0  0  0  0  0
    3.1194   -0.1510    0.0000 C   0  0  0  0  0  0  0  0  0  0  0  0
    3.1194   -0.9760    0.0000 C   0  0  0  0  0  0  0  0  0  0  0  0
    2.4049   -1.3885    0.0000 S   0  0  0  0  0  0  0  0  0  0  0  0
    1.6905   -0.9760    0.0000 C   0  0  2  0  0  0  0  0  0  0  0  0
    0.8655   -0.9760    0.0000 C   0  0  0  0  0  0  0  0  0  0  0  0
    0.8655   -0.1510    0.0000 C   0  0  0  0  0  0  0  0  0  0  0  0
    2.4049    1.0865    0.0000 C   0  0  0  0  0  0  0  0  0  0  0  0
    3.1194    1.4990    0.0000 O   0  0  0  0  0  0  0  0  0  0  0  0
    1.6905    1.4990    0.0000 O   0  0  0  0  0  0  0  0  0  0  0  0
    0.2821    0.4324    0.0000 O   0  0  0  0  0  0  0  0  0  0  0  0
    3.8339    0.2615    0.0000 C   0  0  0  0  0  0  0  0  0  0  0  0
    4.5483   -0.1510    0.0000 S   0  0  0  0  0  0  0  0  0  0  0  0
    6.5685    0.5391    0.0000 N   0  0  0  0  0  0  0  0  0  0  0  0
    6.0165   -0.0740    0.0000 N   0  0  0  0  0  0  0  0  0  0  0  0
    5.2628    0.2615    0.0000 C   0  0  0  0  0  0  0  0  0  0  0  0
    5.3490    1.0820    0.0000 N   0  0  0  0  0  0  0  0  0  0  0  0
    6.1560    1.2535    0.0000 C   0  0  0  0  0  0  0  0  0  0  0  0
    4.7360    1.6340    0.0000 C   0  0  0  0  0  0  0  0  0  0  0  0
    0.2821   -1.5593    0.0000 N   0  0  0  0  0  0  0  0  0  0  0  0
    0.4956   -2.3562    0.0000 C   0  0  0  0  0  0  0  0  0  0  0  0
    1.2925   -2.5698    0.0000 O   0  0  0  0  0  0  0  0  0  0  0  0
   -0.0877   -2.9396    0.0000 C   0  0  0  0  0  0  0  0  0  0  0  0
   -0.8846   -2.7261    0.0000 O   0  0  0  0  0  0  0  0  0  0  0  0
    0.8528   -4.8560    0.0000 S   0  0  0  0  0  0  0  0  0  0  0  0
    0.0559   -5.0695    0.0000 C   0  0  0  0  0  0  0  0  0  0  0  0
   -0.3934   -4.3776    0.0000 N   0  0  0  0  0  0  0  0  0  0  0  0
    0.1258   -3.7365    0.0000 C   0  0  0  0  0  0  0  0  0  0  0  0
    0.8960   -4.0321    0.0000 C   0  0  0  0  0  0  0  0  0  0  0  0
   -0.2397   -5.8397    0.0000 N   0  0  0  0  0  0  0  0  0  0  0  0
  1  2  1  0  0  0  0
  2  3  2  0  0  0  0
  3  4  1  0  0  0  0
  4  5  1  0  0  0  0
  6  5  1  0  0  0  0
  6  1  1  6  0  0  0
  6  7  1  0  0  0  0
  7  8  1  0  0  0  0
  1  8  1  0  0  0  0
  9 10  1  0  0  0  0
  9 11  2  0  0  0  0
  2  9  1  0  0  0  0
  8 12  2  0  0  0  0
 15 16  1  0  0  0  0
 16 17  2  0  0  0  0
 17 18  1  0  0  0  0
 18 19  1  0  0  0  0
 15 19  2  0  0  0  0
 18 20  1  0  0  0  0
 14 17  1  0  0  0  0
 13 14  1  0  0  0  0
  3 13  1  0  0  0  0
 22 23  2  0  0  0  0
 22 24  1  0  0  0  0
 24 25  2  0  0  0  0
 26 27  1  0  0  0  0
 27 28  2  0  0  0  0
 28 29  1  0  0  0  0
 29 30  2  0  0  0  0
 26 30  1  0  0  0  0
 27 31  1  0  0  0  0
 24 29  1  0  0  0  0
 21 22  1  0  0  0  0
  7 21  1  0  0  0  0
M  END
>  <type>
systematic

$$$$
5-Thia-1-azabicyclo[4.2.0]oct-2-ene-2-carboxylic acid, 7-[[(2-amino-4-thiazolyl)oxoacetyl]amino]-3-[[(5-methyl-1,3,4-oxadiazol-2-yl)thio]methyl]-8-oxo-, (6R-trans)-
  Mrv2401 11032421332D          

 31 34  0  0  1  0            999 V2000
    1.6905   -0.1510    0.0000 N   0  0  0  0  0  0  0  0  0  0  0  0
    2.4049    0.2615    0.0000 C   0  0  0  0  0  0  0  0  0  0  0  0
    3.1194   -0.1510    0.0000 C   0  0  0  0  0  0  0  0  0  0  0  0
    3.1194   -0.9760    0.0000 C   0  0  0  0  0  0  0  0  0  0  0  0
    2.4049   -1.3885    0.0000 S   0  0  0  0  0  0  0  0  0  0  0  0
    1.6905   -0.9760    0.0000 C   0  0  2  0  0  0  0  0  0  0  0  0
    0.8655   -0.9760    0.0000 C   0  0  0  0  0  0  0  0  0  0  0  0
    0.8655   -0.1510    0.0000 C   0  0  0  0  0  0  0  0  0  0  0  0
    2.4049    1.0865    0.0000 C   0  0  0  0  0  0  0  0  0  0  0  0
    3.1194    1.4990    0.0000 O   0  0  0  0  0  0  0  0  0  0  0  0
    1.6905    1.4990    0.0000 O   0  0  0  0  0  0  0  0  0  0  0  0
    0.2821    0.4324    0.0000 O   0  0  0  0  0  0  0  0  0  0  0  0
    3.8339    0.2615    0.0000 C   0  0  0  0  0  0  0  0  0  0  0  0
    4.5483   -0.1510    0.0000 S   0  0  0  0  0  0  0  0  0  0  0  0
    6.0165   -0.0740    0.0000 O   0  0  0  0  0  0  0  0  0  0  0  0
    5.2628    0.2615    0.0000 C   0  0  0  0  0  0  0  0  0  0  0  0
    5.3490    1.0820    0.0000 N   0  0  0  0  0  0  0  0  0  0  0  0
    6.1560    1.2535    0.0000 N   0  0  0  0  0  0  0  0  0  0  0  0
    6.5685    0.5391    0.0000 C   0  0  0  0  0  0  0  0  0  0  0  0
    7.3890    0.4528    0.0000 C   0  0  0  0  0  0  0  0  0  0  0  0
    0.2821   -1.5593    0.0000 N   0  0  0  0  0  0  0  0  0  0  0  0
    0.4956   -2.3562    0.0000 C   0  0  0  0  0  0  0  0  0  0  0  0
    1.2925   -2.5698    0.0000 O   0  0  0  0  0  0  0  0  0  0  0  0
   -0.0877   -2.9396    0.0000 C   0  0  0  0  0  0  0  0  0  0  0  0
   -0.8846   -2.7261    0.0000 O   0  0  0  0  0  0  0  0  0  0  0  0
    0.8528   -4.8560    0.0000 S   0  0  0  0  0  0  0  0  0  0  0  0
    0.0559   -5.0695    0.0000 C   0  0  0  0  0  0  0  0  0  0  0  0
   -0.3934   -4.3776    0.0000 N   0  0  0  0  0  0  0  0  0  0  0  0
    0.1258   -3.7365    0.0000 C   0  0  0  0  0  0  0  0  0  0  0  0
    0.8960   -4.0321    0.0000 C   0  0  0  0  0  0  0  0  0  0  0  0
   -0.2397   -5.8397    0.0000 N   0  0  0  0  0  0  0  0  0  0  0  0
  1  2  1  0  0  0  0
  2  3  2  0  0  0  0
  3  4  1  0  0  0  0
  4  5  1  0  0  0  0
  6  5  1  0  0  0  0
  6  1  1  6  0  0  0
  6  7  1  0  0  0  0
  7  8  1  0  0  0  0
  1  8  1  0  0  0  0
  9 10  1  0  0  0  0
  9 11  2  0  0  0  0
  2  9  1  0  0  0  0
  8 12  2  0  0  0  0
 15 16  1  0  0  0  0
 16 17  2  0  0  0  0
 17 18  1  0  0  0  0
 18 19  2  0  0  0  0
 15 19  1  0  0  0  0
 19 20  1  0  0  0  0
 14 16  1  0  0  0  0
 13 14  1  0  0  0  0
  3 13  1  0  0  0  0
 22 23  2  0  0  0  0
 22 24  1  0  0  0  0
 24 25  2  0  0  0  0
 26 27  1  0  0  0  0
 27 28  2  0  0  0  0
 28 29  1  0  0  0  0
 29 30  2  0  0  0  0
 26 30  1  0  0  0  0
 27 31  1  0  0  0  0
 24 29  1  0  0  0  0
 21 22  1  0  0  0  0
  7 21  1  0  0  0  0
M  END
>  <type>
systematic

$$$$
5-Thia-1-azabicyclo[4.2.0]oct-2-ene-2-carboxylic acid, 7-[[[2-(methylamino)-4-thiazolyl]oxoacetyl]amino]-3-[[(1-methyl-1H-tetrazol-5-yl)thio]methyl]-8-oxo-, (6R-trans)-
  Mrv2401 11032421332D          

 32 35  0  0  1  0            999 V2000
    1.6905   -0.1510    0.0000 N   0  0  0  0  0  0  0  0  0  0  0  0
    2.4049    0.2615    0.0000 C   0  0  0  0  0  0  0  0  0  0  0  0
    3.1194   -0.1510    0.0000 C   0  0  0  0  0  0  0  0  0  0  0  0
    3.1194   -0.9760    0.0000 C   0  0  0  0  0  0  0  0  0  0  0  0
    2.4049   -1.3885    0.0000 S   0  0  0  0  0  0  0  0  0  0  0  0
    1.6905   -0.9760    0.0000 C   0  0  2  0  0  0  0  0  0  0  0  0
    0.8655   -0.9760    0.0000 C   0  0  0  0  0  0  0  0  0  0  0  0
    0.8655   -0.1510    0.0000 C   0  0  0  0  0  0  0  0  0  0  0  0
    2.4049    1.0865    0.0000 C   0  0  0  0  0  0  0  0  0  0  0  0
    3.1194    1.4990    0.0000 O   0  0  0  0  0  0  0  0  0  0  0  0
    1.6905    1.4990    0.0000 O   0  0  0  0  0  0  0  0  0  0  0  0
    0.2821    0.4324    0.0000 O   0  0  0  0  0  0  0  0  0  0  0  0
    3.8339    0.2615    0.0000 C   0  0  0  0  0  0  0  0  0  0  0  0
    4.5483   -0.1510    0.0000 S   0  0  0  0  0  0  0  0  0  0  0  0
    5.3490    1.0820    0.0000 N   0  0  0  0  0  0  0  0  0  0  0  0
    6.1560    1.2535    0.0000 N   0  0  0  0  0  0  0  0  0  0  0  0
    6.5685    0.5391    0.0000 N   0  0  0  0  0  0  0  0  0  0  0  0
    6.0165   -0.0740    0.0000 N   0  0  0  0  0  0  0  0  0  0  0  0
    5.2628    0.2615    0.0000 C   0  0  0  0  0  0  0  0  0  0  0  0
    4.7360    1.6340    0.0000 C   0  0  0  0  0  0  0  0  0  0  0  0
    0.2821   -1.5593    0.0000 N   0  0  0  0  0  0  0  0  0  0  0  0
    0.4956   -2.3562    0.0000 C   0  0  0  0  0  0  0  0  0  0  0  0
    1.2925   -2.5698    0.0000 O   0  0  0  0  0  0  0  0  0  0  0  0
   -0.0877   -2.9396    0.0000 C   0  0  0  0  0  0  0  0  0  0  0  0
   -0.8846   -2.7261    0.0000 O   0  0  0  0  0  0  0  0  0  0  0  0
    0.8528   -4.8560    0.0000 S   0  0  0  0  0  0  0  0  0  0  0  0
    0.0559   -5.0695    0.0000 C   0  0  0  0  0  0  0  0  0  0  0  0
   -0.3934   -4.3776    0.0000 N   0  0  0  0  0  0  0  0  0  0  0  0
    0.1258   -3.7365    0.0000 C   0  0  0  0  0  0  0  0  0  0  0  0
    0.8960   -4.0321    0.0000 C   0  0  0  0  0  0  0  0  0  0  0  0
   -0.2397   -5.8397    0.0000 N   0  0  0  0  0  0  0  0  0  0  0  0
    0.2795   -6.4809    0.0000 C   0  0  0  0  0  0  0  0  0  0  0  0
  1  2  1  0  0  0  0
  2  3  2  0  0  0  0
  3  4  1  0  0  0  0
  4  5  1  0  0  0  0
  6  5  1  0  0  0  0
  6  1  1  6  0  0  0
  6  7  1  0  0  0  0
  7  8  1  0  0  0  0
  1  8  1  0  0  0  0
  9 10  1  0  0  0  0
  9 11  2  0  0  0  0
  2  9  1  0  0  0  0
  8 12  2  0  0  0  0
 15 16  1  0  0  0  0
 16 17  2  0  0  0  0
 17 18  1  0  0  0  0
 18 19  2  0  0  0  0
 15 19  1  0  0  0  0
 15 20  1  0  0  0  0
 14 19  1  0  0  0  0
 13 14  1  0  0  0  0
  3 13  1  0  0  0  0
 22 23  2  0  0  0  0
 22 24  1  0  0  0  0
 24 25  2  0  0  0  0
 26 27  1  0  0  0  0
 27 28  2  0  0  0  0
 28 29  1  0  0  0  0
 29 30  2  0  0  0  0
 26 30  1  0  0  0  0
 31 32  1  0  0  0  0
 27 31  1  0  0  0  0
 24 29  1  0  0  0  0
 21 22  1  0  0  0  0
  7 21  1  0  0  0  0
M  END
>  <type>
systematic

$$$$
5-Thia-1-azabicyclo[4.2.0]oct-2-ene-2-carboxylic acid, 7-[[(2-amino-4-thiazolyl)oxoacetyl]amino]-3-[[(1-methyl-1H-tetrazol-5-yl)thio]methyl]-8-oxo-, 5-oxide,[5 S-(5α,6β,7α)]-
  Mrv2401 11032421342D          

 32 35  0  0  1  0            999 V2000
    1.6905   -0.1510    0.0000 N   0  0  0  0  0  0  0  0  0  0  0  0
    2.4049    0.2615    0.0000 C   0  0  0  0  0  0  0  0  0  0  0  0
    3.1194   -0.1510    0.0000 C   0  0  0  0  0  0  0  0  0  0  0  0
    3.1194   -0.9760    0.0000 C   0  0  0  0  0  0  0  0  0  0  0  0
    2.4049   -1.3885    0.0000 S   0  0  1  0  0  0  0  0  0  0  0  0
    1.6905   -0.9760    0.0000 C   0  0  2  0  0  0  0  0  0  0  0  0
    0.8655   -0.9760    0.0000 C   0  0  1  0  0  0  0  0  0  0  0  0
    0.8655   -0.1510    0.0000 C   0  0  0  0  0  0  0  0  0  0  0  0
    2.4049    1.0865    0.0000 C   0  0  0  0  0  0  0  0  0  0  0  0
    3.1194    1.4990    0.0000 O   0  0  0  0  0  0  0  0  0  0  0  0
    1.6905    1.4990    0.0000 O   0  0  0  0  0  0  0  0  0  0  0  0
    0.2821    0.4324    0.0000 O   0  0  0  0  0  0  0  0  0  0  0  0
    3.8339    0.2615    0.0000 C   0  0  0  0  0  0  0  0  0  0  0  0
    4.5483   -0.1510    0.0000 S   0  0  0  0  0  0  0  0  0  0  0  0
    5.3490    1.0820    0.0000 N   0  0  0  0  0  0  0  0  0  0  0  0
    6.1560    1.2535    0.0000 N   0  0  0  0  0  0  0  0  0  0  0  0
    6.5685    0.5391    0.0000 N   0  0  0  0  0  0  0  0  0  0  0  0
    6.0165   -0.0740    0.0000 N   0  0  0  0  0  0  0  0  0  0  0  0
    5.2628    0.2615    0.0000 C   0  0  0  0  0  0  0  0  0  0  0  0
    4.7360    1.6340    0.0000 C   0  0  0  0  0  0  0  0  0  0  0  0
    0.2821   -1.5593    0.0000 N   0  0  0  0  0  0  0  0  0  0  0  0
    0.4956   -2.3562    0.0000 C   0  0  0  0  0  0  0  0  0  0  0  0
    1.2925   -2.5698    0.0000 O   0  0  0  0  0  0  0  0  0  0  0  0
   -0.0877   -2.9396    0.0000 C   0  0  0  0  0  0  0  0  0  0  0  0
   -0.8846   -2.7261    0.0000 O   0  0  0  0  0  0  0  0  0  0  0  0
    0.8528   -4.8560    0.0000 S   0  0  0  0  0  0  0  0  0  0  0  0
    0.0559   -5.0695    0.0000 C   0  0  0  0  0  0  0  0  0  0  0  0
   -0.3934   -4.3776    0.0000 N   0  0  0  0  0  0  0  0  0  0  0  0
    0.1258   -3.7365    0.0000 C   0  0  0  0  0  0  0  0  0  0  0  0
    0.8960   -4.0321    0.0000 C   0  0  0  0  0  0  0  0  0  0  0  0
   -0.2397   -5.8397    0.0000 N   0  0  0  0  0  0  0  0  0  0  0  0
    2.4049   -2.2135    0.0000 O   0  0  0  0  0  0  0  0  0  0  0  0
  1  2  1  0  0  0  0
  2  3  2  0  0  0  0
  3  4  1  0  0  0  0
  5  4  1  6  0  0  0
  6  5  1  0  0  0  0
  6  1  1  6  0  0  0
  6  7  1  0  0  0  0
  7  8  1  0  0  0  0
  1  8  1  0  0  0  0
  9 10  1  0  0  0  0
  9 11  2  0  0  0  0
  2  9  1  0  0  0  0
  8 12  2  0  0  0  0
 15 16  1  0  0  0  0
 16 17  2  0  0  0  0
 17 18  1  0  0  0  0
 18 19  2  0  0  0  0
 15 19  1  0  0  0  0
 15 20  1  0  0  0  0
 14 19  1  0  0  0  0
 13 14  1  0  0  0  0
  3 13  1  0  0  0  0
 22 23  2  0  0  0  0
 22 24  1  0  0  0  0
 24 25  2  0  0  0  0
 26 27  1  0  0  0  0
 27 28  2  0  0  0  0
 28 29  1  0  0  0  0
 29 30  2  0  0  0  0
 26 30  1  0  0  0  0
 27 31  1  0  0  0  0
 24 29  1  0  0  0  0
 21 22  1  0  0  0  0
  7 21  1  6  0  0  0
  5 32  2  0  0  0  0
M  END
>  <type>
systematic

$$$$

  Mrv2401 11032423402D          

 29 31  0  0  0  0            999 V2000
    2.8579    0.0000    0.0000 C   0  0  0  0  0  0  0  0  0  0  0  0
    2.8579    0.8250    0.0000 C   0  0  0  0  0  0  0  0  0  0  0  0
    2.1434    1.2375    0.0000 O   0  0  0  0  0  0  0  0  0  0  0  0
    3.5724    1.2375    0.0000 O   0  0  0  0  0  0  0  0  0  0  0  0
    3.5724   -0.4125    0.0000 C   0  0  0  0  0  0  0  0  0  0  0  0
    3.5724   -1.2375    0.0000 C   0  0  0  0  0  0  0  0  0  0  0  0
    2.8579   -1.6500    0.0000 C   0  0  0  0  0  0  0  0  0  0  0  0
    2.1434   -1.2375    0.0000 O   0  0  0  0  0  0  0  0  0  0  0  0
    2.1434   -0.4125    0.0000 C   0  0  1  0  0  0  0  0  0  0  0  0
    2.8579   -2.4750    0.0000 N   0  0  0  0  0  0  0  0  0  0  0  0
    2.1434   -2.8875    0.0000 C   0  0  0  0  0  0  0  0  0  0  0  0
    2.1434   -3.7125    0.0000 C   0  0  0  0  0  0  0  0  0  0  0  0
    2.8579   -4.1250    0.0000 O   0  0  0  0  0  0  0  0  0  0  0  0
    1.4289   -4.1250    0.0000 C   0  0  0  0  0  0  0  0  0  0  0  0
    1.4289   -4.9500    0.0000 C   0  0  0  0  0  0  0  0  0  0  0  0
    0.7145   -5.3625    0.0000 C   0  0  0  0  0  0  0  0  0  0  0  0
   -0.0000   -4.9500    0.0000 C   0  0  0  0  0  0  0  0  0  0  0  0
   -0.0000   -4.1250    0.0000 C   0  0  0  0  0  0  0  0  0  0  0  0
    0.7145   -3.7125    0.0000 C   0  0  0  0  0  0  0  0  0  0  0  0
    4.2868   -1.6500    0.0000 O   0  0  0  0  0  0  0  0  0  0  0  0
    4.2868    0.0000    0.0000 O   0  0  0  0  0  0  0  0  0  0  0  0
    1.4289    0.0000    0.0000 O   0  0  0  0  0  0  0  0  0  0  0  0
    1.4289    0.8250    0.0000 C   0  0  0  0  0  0  0  0  0  0  0  0
    0.7145    1.2375    0.0000 C   0  0  0  0  0  0  0  0  0  0  0  0
    0.7145    2.0625    0.0000 C   0  0  0  0  0  0  0  0  0  0  0  0
   -0.0000    2.4750    0.0000 C   0  0  0  0  0  0  0  0  0  0  0  0
   -0.7145    2.0625    0.0000 C   0  0  0  0  0  0  0  0  0  0  0  0
   -0.7145    1.2375    0.0000 C   0  0  0  0  0  0  0  0  0  0  0  0
   -0.0000    0.8250    0.0000 C   0  0  0  0  0  0  0  0  0  0  0  0
  1  2  1  0  0  0  0
  2  3  1  0  0  0  0
  2  4  2  0  0  0  0
  5  6  1  0  0  0  0
  7  8  1  0  0  0  0
  8  9  1  0  0  0  0
  1  9  1  0  0  0  0
 11 12  1  0  0  0  0
 12 13  2  0  0  0  0
 14 15  2  0  0  0  0
 15 16  1  0  0  0  0
 16 17  2  0  0  0  0
 17 18  1  0  0  0  0
 18 19  2  0  0  0  0
 14 19  1  0  0  0  0
 12 14  1  0  0  0  0
 10 11  1  0  0  0  0
  7 10  1  0  0  0  0
  1  5  1  0  0  0  0
  6  7  1  0  0  0  0
  6 20  1  0  0  0  0
  5 21  1  0  0  0  0
  9 22  1  1  0  0  0
 22 23  1  0  0  0  0
 23 24  1  0  0  0  0
 25 26  2  0  0  0  0
 26 27  1  0  0  0  0
 27 28  2  0  0  0  0
 28 29  1  0  0  0  0
 24 25  1  0  0  0  0
 24 29  2  0  0  0  0
M  END
>  <type>
systematic

$$$$

  Mrv2401 11032423442D          

  0  0  0     0  0            999 V3000
M  V30 BEGIN CTAB
M  V30 COUNTS 24 26 0 0 1
M  V30 BEGIN ATOM
M  V30 1 N 3.3102 0.4645 0 0
M  V30 2 C 4.7748 0.9403 0 0 CFG=2
M  V30 3 C 5.68 -0.3055 0 0
M  V30 4 S 4.7748 -1.5514 0 0
M  V30 5 C 3.3102 -1.0755 0 0
M  V30 6 C 1.7702 -1.0755 0 0 CFG=2
M  V30 7 C 1.7702 0.4645 0 0
M  V30 8 C 5.2507 2.405 0 0
M  V30 9 O 6.757 2.7252 0 0
M  V30 10 O 4.2202 3.5494 0 0
M  V30 11 O 0.6812 1.5534 0 0
M  V30 12 C 7.0217 0.4505 0 0
M  V30 13 C 7.0217 -1.0615 0 0
M  V30 14 N 0.6812 -2.1645 0 0
M  V30 15 C -0.8063 -1.7659 0 0
M  V30 16 O -1.2049 -0.2784 0 0
M  V30 17 C -1.8952 -2.8548 0 0
M  V30 18 C -3.3828 -2.4563 0 0
M  V30 19 C -4.4717 -3.5452 0 0
M  V30 20 C -5.9592 -3.1466 0 0
M  V30 21 C -6.3578 -1.6591 0 0
M  V30 22 C -5.2689 -0.5702 0 0
M  V30 23 C -3.7814 -0.9687 0 0
M  V30 24 O -1.4967 -4.3424 0 0
M  V30 END ATOM
M  V30 BEGIN BOND
M  V30 1 1 2 1
M  V30 2 1 2 3
M  V30 3 1 3 4
M  V30 4 1 5 4
M  V30 5 1 5 1
M  V30 6 1 5 6
M  V30 7 1 6 7
M  V30 8 1 1 7
M  V30 9 1 8 9
M  V30 10 2 8 10
M  V30 11 1 2 8 CFG=1
M  V30 12 2 7 11
M  V30 13 1 3 12
M  V30 14 1 3 13
M  V30 15 2 15 16
M  V30 16 1 15 17
M  V30 17 2 18 19
M  V30 18 1 19 20
M  V30 19 2 20 21
M  V30 20 1 21 22
M  V30 21 2 22 23
M  V30 22 1 18 23
M  V30 23 1 17 18
M  V30 24 1 17 24
M  V30 25 1 14 15
M  V30 26 1 6 14 CFG=1
M  V30 END BOND
M  V30 BEGIN COLLECTION
M  V30 MDLV30/STEREL1 ATOMS=(1 6)
M  V30 END COLLECTION
M  V30 END CTAB
M  END
>  <type>
systematic

$$$$

  Mrv2401 11032423502D          

 26 27  0  0  1  0            999 V2000
    7.0299   -4.7137    0.0000 C   0  0  0  0  0  0  0  0  0  0  0  0
    7.8145   -4.4587    0.0000 C   0  0  0  0  0  0  0  0  0  0  0  0
    9.2122   -4.7558    0.0000 N   0  0  0  0  0  0  0  0  0  0  0  0
    8.4276   -5.0108    0.0000 C   0  0  0  0  0  0  0  0  0  0  0  0
    9.8253   -5.3079    0.0000 C   0  0  0  0  0  0  0  0  0  0  0  0
   10.6100   -5.0529    0.0000 C   0  0  0  0  0  0  0  0  0  0  0  0
   11.2230   -5.6050    0.0000 C   0  0  0  0  0  0  0  0  0  0  0  0
   11.0515   -6.4119    0.0000 C   0  0  0  0  0  0  0  0  0  0  0  0
   10.2669   -6.6669    0.0000 C   0  0  0  0  0  0  0  0  0  0  0  0
    9.6538   -6.1148    0.0000 C   0  0  0  0  0  0  0  0  0  0  0  0
   11.6646   -6.9640    0.0000 C   0  0  0  0  0  0  0  0  0  0  0  0
   11.4931   -7.7709    0.0000 O   0  0  0  0  0  0  0  0  0  0  0  0
   12.4492   -6.7090    0.0000 O   0  0  0  0  0  0  0  0  0  0  0  0
   12.0077   -5.3500    0.0000 O   0  0  0  0  0  0  0  0  0  0  0  0
    8.2561   -5.8177    0.0000 O   0  0  0  0  0  0  0  0  0  0  0  0
    7.9860   -3.6518    0.0000 O   0  0  0  0  0  0  0  0  0  0  0  0
    6.4168   -4.1617    0.0000 C   0  0  1  0  0  0  0  0  0  0  0  0
    5.6322   -4.4166    0.0000 C   0  0  2  0  0  0  0  0  0  0  0  0
    5.4606   -5.2236    0.0000 C   0  0  1  0  0  0  0  0  0  0  0  0
    6.0737   -5.7756    0.0000 C   0  0  2  0  0  0  0  0  0  0  0  0
    6.8584   -5.5207    0.0000 O   0  0  0  0  0  0  0  0  0  0  0  0
    6.5883   -3.3547    0.0000 O   0  0  0  0  0  0  0  0  0  0  0  0
    4.6760   -5.4785    0.0000 O   0  0  0  0  0  0  0  0  0  0  0  0
    5.9022   -6.5826    0.0000 C   0  0  0  0  0  0  0  0  0  0  0  0
    5.0191   -3.8646    0.0000 O   0  0  0  0  0  0  0  0  0  0  0  0
    6.5153   -7.1346    0.0000 O   0  0  0  0  0  0  0  0  0  0  0  0
  1  2  1  0  0  0  0
  3  4  1  0  0  0  0
  5  6  2  0  0  0  0
  6  7  1  0  0  0  0
  7  8  2  0  0  0  0
  8  9  1  0  0  0  0
  9 10  2  0  0  0  0
  5 10  1  0  0  0  0
  3  5  1  0  0  0  0
  2  4  1  0  0  0  0
  8 11  1  0  0  0  0
 11 12  2  0  0  0  0
 11 13  1  0  0  0  0
  7 14  1  0  0  0  0
  4 15  2  0  0  0  0
  2 16  1  0  0  0  0
 17 18  1  0  0  0  0
 18 19  1  0  0  0  0
 19 20  1  0  0  0  0
 20 21  1  0  0  0  0
  1 17  1  0  0  0  0
  1 21  1  0  0  0  0
 17 22  1  1  0  0  0
 19 23  1  1  0  0  0
 20 24  1  6  0  0  0
 18 25  1  6  0  0  0
 24 26  1  0  0  0  0
M  END
>  <type>
systematic

$$$$

  Mrv2401 11032423562D          

 24 26  0  0  0  0            999 V2000
   -3.3292   -4.2338    0.0000 C   0  0  0  0  0  0  0  0  0  0  0  0
   -3.8813   -3.6207    0.0000 C   0  0  0  0  0  0  0  0  0  0  0  0
   -3.6263   -2.8361    0.0000 C   0  0  0  0  0  0  0  0  0  0  0  0
   -2.8194   -2.6646    0.0000 C   0  0  0  0  0  0  0  0  0  0  0  0
   -2.2673   -3.2777    0.0000 C   0  0  0  0  0  0  0  0  0  0  0  0
   -2.5223   -4.0623    0.0000 C   0  0  0  0  0  0  0  0  0  0  0  0
   -1.4604   -3.1062    0.0000 C   0  0  0  0  0  0  0  0  0  0  0  0
   -1.2054   -2.3215    0.0000 N   0  0  0  0  0  0  0  0  0  0  0  0
   -0.3984   -2.1500    0.0000 N   0  0  0  0  0  0  0  0  0  0  0  0
    0.6411   -1.1104    0.0000 C   0  0  0  0  0  0  0  0  0  0  0  0
   -0.1435   -1.3654    0.0000 C   0  0  0  0  0  0  0  0  0  0  0  0
   -0.6284   -0.6979    0.0000 C   0  0  0  0  0  0  0  0  0  0  0  0
   -0.1435   -0.0305    0.0000 N   0  0  0  0  0  0  0  0  0  0  0  0
    0.6411   -0.2854    0.0000 C   0  0  0  0  0  0  0  0  0  0  0  0
    1.3556    0.1271    0.0000 C   0  0  0  0  0  0  0  0  0  0  0  0
    2.0701   -0.2854    0.0000 C   0  0  0  0  0  0  0  0  0  0  0  0
    2.0701   -1.1104    0.0000 C   0  0  0  0  0  0  0  0  0  0  0  0
    1.3556   -1.5229    0.0000 C   0  0  0  0  0  0  0  0  0  0  0  0
    2.7845   -1.5229    0.0000 C   0  0  0  0  0  0  0  0  0  0  0  0
    2.7845   -2.3479    0.0000 O   0  0  0  0  0  0  0  0  0  0  0  0
    3.4990   -1.1104    0.0000 O   0  0  0  0  0  0  0  0  0  0  0  0
   -1.4534   -0.6979    0.0000 C   0  0  0  0  0  0  0  0  0  0  0  0
   -0.9083   -3.7192    0.0000 O   0  0  0  0  0  0  0  0  0  0  0  0
   -1.9702   -4.6754    0.0000 N   0  0  0  0  0  0  0  0  0  0  0  0
  1  2  2  0  0  0  0
  2  3  1  0  0  0  0
  3  4  2  0  0  0  0
  4  5  1  0  0  0  0
  5  6  2  0  0  0  0
  1  6  1  0  0  0  0
  8  9  1  0  0  0  0
 10 11  1  0  0  0  0
 11 12  1  0  0  0  0
 12 13  1  0  0  0  0
 13 14  1  0  0  0  0
 10 14  2  0  0  0  0
 14 15  1  0  0  0  0
 15 16  2  0  0  0  0
 16 17  1  0  0  0  0
 17 18  2  0  0  0  0
 10 18  1  0  0  0  0
  9 11  2  0  0  0  0
  7  8  1  0  0  0  0
  5  7  1  0  0  0  0
 17 19  1  0  0  0  0
 19 20  1  0  0  0  0
 19 21  2  0  0  0  0
 12 22  2  0  0  0  0
  7 23  2  0  0  0  0
  6 24  1  0  0  0  0
M  END
>  <type>
systematic

$$$$

  Mrv2401 11042400052D          

  0  0  0     0  0            999 V3000
M  V30 BEGIN CTAB
M  V30 COUNTS 27 29 0 0 1
M  V30 BEGIN ATOM
M  V30 1 N 3.1555 -0.2818 0 0
M  V30 2 C 4.4892 0.4882 0 0
M  V30 3 C 5.8229 -0.2818 0 0
M  V30 4 C 5.8229 -1.8218 0 0
M  V30 5 S 4.4892 -2.5918 0 0
M  V30 6 C 3.1555 -1.8218 0 0 CFG=2
M  V30 7 C 1.6155 -1.8218 0 0 CFG=2
M  V30 8 C 1.6155 -0.2818 0 0
M  V30 9 C 4.4892 2.0282 0 0
M  V30 10 O 5.8229 2.7982 0 0
M  V30 11 O 3.1555 2.7982 0 0
M  V30 12 O 0.5266 0.8071 0 0
M  V30 13 N 0.5266 -2.9108 0 0
M  V30 14 C -0.961 -2.5122 0 0
M  V30 15 O -1.3595 -1.0247 0 0
M  V30 16 C -2.0499 -3.6011 0 0 CFG=2
M  V30 17 C -3.5374 -3.2026 0 0
M  V30 18 C -4.6264 -4.2915 0 0
M  V30 19 C -6.1139 -3.8929 0 0
M  V30 20 C -6.5125 -2.4054 0 0
M  V30 21 C -5.4235 -1.3165 0 0
M  V30 22 C -3.936 -1.715 0 0
M  V30 23 O -1.6513 -5.0887 0 0
M  V30 24 C 7.1566 0.4882 0 0
M  V30 25 O 8.4902 -0.2818 0 0
M  V30 26 C 8.4902 -1.8218 0 0
M  V30 27 O 7.1566 2.0282 0 0
M  V30 END ATOM
M  V30 BEGIN BOND
M  V30 1 1 1 2
M  V30 2 2 2 3
M  V30 3 1 3 4
M  V30 4 1 4 5
M  V30 5 1 6 5
M  V30 6 1 6 1 CFG=3
M  V30 7 1 6 7
M  V30 8 1 7 8
M  V30 9 1 1 8
M  V30 10 1 9 10
M  V30 11 2 9 11
M  V30 12 1 2 9
M  V30 13 2 8 12
M  V30 14 2 14 15
M  V30 15 1 14 16
M  V30 16 2 17 18
M  V30 17 1 18 19
M  V30 18 2 19 20
M  V30 19 1 20 21
M  V30 20 2 21 22
M  V30 21 1 17 22
M  V30 22 1 16 17
M  V30 23 1 16 23 CFG=1
M  V30 24 1 13 14
M  V30 25 1 7 13 CFG=1
M  V30 26 1 3 24
M  V30 27 1 24 25
M  V30 28 1 25 26
M  V30 29 2 24 27
M  V30 END BOND
M  V30 BEGIN COLLECTION
M  V30 MDLV30/STEREL1 ATOMS=(1 7)
M  V30 END COLLECTION
M  V30 END CTAB
M  END
>  <type>
systematic

$$$$

  Mrv2401 11042400032D          

  0  0  0     0  0            999 V3000
M  V30 BEGIN CTAB
M  V30 COUNTS 28 30 0 0 1
M  V30 BEGIN ATOM
M  V30 1 N 3.1555 -0.2818 0 0
M  V30 2 C 4.4892 0.4882 0 0
M  V30 3 C 5.8229 -0.2818 0 0
M  V30 4 C 5.8229 -1.8218 0 0
M  V30 5 S 4.4892 -2.5918 0 0
M  V30 6 C 3.1555 -1.8218 0 0 CFG=2
M  V30 7 C 1.6155 -1.8218 0 0 CFG=2
M  V30 8 C 1.6155 -0.2818 0 0
M  V30 9 C 4.4892 2.0282 0 0
M  V30 10 O 5.8229 2.7982 0 0
M  V30 11 O 3.1555 2.7982 0 0
M  V30 12 O 0.5266 0.8071 0 0
M  V30 13 N 0.5266 -2.9108 0 0
M  V30 14 C -0.961 -2.5122 0 0
M  V30 15 O -1.3595 -1.0247 0 0
M  V30 16 C -2.0499 -3.6011 0 0
M  V30 17 C -3.5374 -3.2026 0 0
M  V30 18 C -4.6264 -4.2915 0 0
M  V30 19 C -6.1139 -3.8929 0 0
M  V30 20 C -6.5125 -2.4054 0 0
M  V30 21 C -5.4235 -1.3165 0 0
M  V30 22 C -3.936 -1.715 0 0
M  V30 23 O -1.6513 -5.0887 0 0
M  V30 24 C 7.1566 0.4882 0 0
M  V30 25 C 8.4902 -0.2818 0 0
M  V30 26 C 8.4902 -1.8218 0 0
M  V30 27 O 9.8239 -2.5918 0 0
M  V30 28 C 9.8239 -4.1318 0 0
M  V30 END ATOM
M  V30 BEGIN BOND
M  V30 1 1 1 2
M  V30 2 2 2 3
M  V30 3 1 3 4
M  V30 4 1 4 5
M  V30 5 1 6 5
M  V30 6 1 6 1 CFG=3
M  V30 7 1 6 7
M  V30 8 1 7 8
M  V30 9 1 1 8
M  V30 10 1 9 10
M  V30 11 2 9 11
M  V30 12 1 2 9
M  V30 13 2 8 12
M  V30 14 2 14 15
M  V30 15 1 14 16
M  V30 16 2 17 18
M  V30 17 1 18 19
M  V30 18 2 19 20
M  V30 19 1 20 21
M  V30 20 2 21 22
M  V30 21 1 17 22
M  V30 22 1 16 17
M  V30 23 1 16 23
M  V30 24 1 13 14
M  V30 25 1 7 13 CFG=1
M  V30 26 1 3 24
M  V30 27 2 24 25
M  V30 28 1 25 26
M  V30 29 1 26 27
M  V30 30 1 27 28
M  V30 END BOND
M  V30 BEGIN COLLECTION
M  V30 MDLV30/STEREL1 ATOMS=(1 7)
M  V30 END COLLECTION
M  V30 END CTAB
M  END
>  <type>
systematic

$$$$
5-Thia-1-azabicyclo[4.2.0]oct-2-ene-2-carboxylic acid, 3-methyl-8-oxo-7-[(oxophenylacetyl)amino]-, (6R-trans)-
  Mrv2401 11042400062D          

 24 26  0  0  1  0            999 V2000
    1.6905   -0.1510    0.0000 N   0  0  0  0  0  0  0  0  0  0  0  0
    2.4049    0.2615    0.0000 C   0  0  0  0  0  0  0  0  0  0  0  0
    3.1194   -0.1510    0.0000 C   0  0  0  0  0  0  0  0  0  0  0  0
    3.1194   -0.9760    0.0000 C   0  0  0  0  0  0  0  0  0  0  0  0
    2.4049   -1.3885    0.0000 S   0  0  0  0  0  0  0  0  0  0  0  0
    1.6905   -0.9760    0.0000 C   0  0  2  0  0  0  0  0  0  0  0  0
    0.8655   -0.9760    0.0000 C   0  0  0  0  0  0  0  0  0  0  0  0
    0.8655   -0.1510    0.0000 C   0  0  0  0  0  0  0  0  0  0  0  0
    2.4049    1.0865    0.0000 C   0  0  0  0  0  0  0  0  0  0  0  0
    3.1194    1.4990    0.0000 O   0  0  0  0  0  0  0  0  0  0  0  0
    1.6905    1.4990    0.0000 O   0  0  0  0  0  0  0  0  0  0  0  0
    0.2821   -1.5593    0.0000 N   0  0  0  0  0  0  0  0  0  0  0  0
   -0.5148   -1.3458    0.0000 C   0  0  0  0  0  0  0  0  0  0  0  0
   -0.7283   -0.5489    0.0000 O   0  0  0  0  0  0  0  0  0  0  0  0
   -1.0982   -1.9292    0.0000 C   0  0  0  0  0  0  0  0  0  0  0  0
   -1.8950   -1.7157    0.0000 C   0  0  0  0  0  0  0  0  0  0  0  0
   -2.4784   -2.2990    0.0000 C   0  0  0  0  0  0  0  0  0  0  0  0
   -3.2753   -2.0855    0.0000 C   0  0  0  0  0  0  0  0  0  0  0  0
   -3.4888   -1.2886    0.0000 C   0  0  0  0  0  0  0  0  0  0  0  0
   -2.9055   -0.7052    0.0000 C   0  0  0  0  0  0  0  0  0  0  0  0
   -2.1086   -0.9188    0.0000 C   0  0  0  0  0  0  0  0  0  0  0  0
   -0.8846   -2.7261    0.0000 O   0  0  0  0  0  0  0  0  0  0  0  0
    0.2821    0.4324    0.0000 O   0  0  0  0  0  0  0  0  0  0  0  0
    3.8339    0.2615    0.0000 C   0  0  0  0  0  0  0  0  0  0  0  0
  1  2  1  0  0  0  0
  2  3  2  0  0  0  0
  3  4  1  0  0  0  0
  4  5  1  0  0  0  0
  6  5  1  0  0  0  0
  6  1  1  6  0  0  0
  6  7  1  0  0  0  0
  7  8  1  0  0  0  0
  1  8  1  0  0  0  0
  9 10  1  0  0  0  0
  9 11  2  0  0  0  0
  2  9  1  0  0  0  0
 13 14  2  0  0  0  0
 13 15  1  0  0  0  0
 16 17  2  0  0  0  0
 17 18  1  0  0  0  0
 18 19  2  0  0  0  0
 19 20  1  0  0  0  0
 20 21  2  0  0  0  0
 16 21  1  0  0  0  0
 15 16  1  0  0  0  0
 15 22  2  0  0  0  0
 12 13  1  0  0  0  0
  7 12  1  0  0  0  0
  8 23  2  0  0  0  0
  3 24  1  0  0  0  0
M  END
>  <type>
systematic

$$$$

  Mrv2401 11042400122D          

 31 34  0  0  0  0            999 V2000
    3.4990   -0.2854    0.0000 C   0  0  0  0  0  0  0  0  0  0  0  0
    3.4990   -1.1104    0.0000 C   0  0  0  0  0  0  0  0  0  0  0  0
    4.2135   -1.5229    0.0000 O   0  0  0  0  0  0  0  0  0  0  0  0
    2.7845   -1.5229    0.0000 O   0  0  0  0  0  0  0  0  0  0  0  0
    2.7845    0.1271    0.0000 C   0  0  0  0  0  0  0  0  0  0  0  0
    2.7845    0.9521    0.0000 C   0  0  0  0  0  0  0  0  0  0  0  0
    3.4990    1.3646    0.0000 C   0  0  0  0  0  0  0  0  0  0  0  0
    4.2135    0.9521    0.0000 C   0  0  0  0  0  0  0  0  0  0  0  0
    4.2135    0.1271    0.0000 C   0  0  0  0  0  0  0  0  0  0  0  0
    3.4990    2.1896    0.0000 N   0  0  0  0  0  0  0  0  0  0  0  0
    4.2135    2.6021    0.0000 C   0  0  0  0  0  0  0  0  0  0  0  0
    4.2135    3.4271    0.0000 C   0  0  0  0  0  0  0  0  0  0  0  0
    4.9279    3.8396    0.0000 C   0  0  0  0  0  0  0  0  0  0  0  0
    4.9279    2.1896    0.0000 O   0  0  0  0  0  0  0  0  0  0  0  0
    3.4990    3.8396    0.0000 O   0  0  0  0  0  0  0  0  0  0  0  0
    5.6424    3.4271    0.0000 N   0  0  0  0  0  0  0  0  0  0  0  0
    6.3569    3.8396    0.0000 C   0  0  0  0  0  0  0  0  0  0  0  0
    6.3569    4.6646    0.0000 C   0  0  0  0  0  0  0  0  0  0  0  0
    5.6424    5.0771    0.0000 C   0  0  0  0  0  0  0  0  0  0  0  0
    4.9280    4.6646    0.0000 C   0  0  0  0  0  0  0  0  0  0  0  0
    5.6424    2.6021    0.0000 O   0  0  0  0  0  0  0  0  0  0  0  0
    7.0714    5.0771    0.0000 C   0  0  0  0  0  0  0  0  0  0  0  0
    7.7859    4.6646    0.0000 C   0  0  0  0  0  0  0  0  0  0  0  0
    8.5003    5.0771    0.0000 C   0  0  0  0  0  0  0  0  0  0  0  0
    8.5004    5.9021    0.0000 C   0  0  0  0  0  0  0  0  0  0  0  0
    7.7859    6.3146    0.0000 C   0  0  0  0  0  0  0  0  0  0  0  0
    7.0714    5.9021    0.0000 C   0  0  0  0  0  0  0  0  0  0  0  0
    7.7859    3.8396    0.0000 Cl  0  0  0  0  0  0  0  0  0  0  0  0
    7.7859    7.1396    0.0000 C   0  0  0  0  0  0  0  0  0  0  0  0
    8.1984    7.8541    0.0000 C   0  0  0  0  0  0  0  0  0  0  0  0
    7.3734    7.8541    0.0000 C   0  0  0  0  0  0  0  0  0  0  0  0
  1  2  1  0  0  0  0
  2  3  1  0  0  0  0
  2  4  2  0  0  0  0
  1  5  2  0  0  0  0
  5  6  1  0  0  0  0
  6  7  2  0  0  0  0
  7  8  1  0  0  0  0
  8  9  2  0  0  0  0
  1  9  1  0  0  0  0
  7 10  1  0  0  0  0
 10 11  1  0  0  0  0
 11 12  1  0  0  0  0
 12 13  1  0  0  0  0
 11 14  2  0  0  0  0
 12 15  1  0  0  0  0
 16 17  2  0  0  0  0
 17 18  1  0  0  0  0
 18 19  2  0  0  0  0
 19 20  1  0  0  0  0
 13 16  1  0  0  0  0
 13 20  2  0  0  0  0
 16 21  2  0  0  0  0
 18 22  1  0  0  0  0
 23 24  2  0  0  0  0
 24 25  1  0  0  0  0
 25 26  2  0  0  0  0
 26 27  1  0  0  0  0
 22 23  1  0  0  0  0
 22 27  2  0  0  0  0
 23 28  1  0  0  0  0
 26 29  1  0  0  0  0
 30 31  1  0  0  0  0
 29 30  1  0  0  0  0
 31 29  1  0  0  0  0
M  END
>  <type>
systematic

$$$$

  Mrv2401 11042400152D          

  0  0  0     0  0            999 V3000
M  V30 BEGIN CTAB
M  V30 COUNTS 23 25 0 0 1
M  V30 BEGIN ATOM
M  V30 1 N 3.1555 -0.2818 0 0
M  V30 2 C 4.4892 0.4882 0 0
M  V30 3 C 5.8229 -0.2818 0 0
M  V30 4 C 5.8229 -1.8218 0 0
M  V30 5 S 4.4892 -2.5918 0 0
M  V30 6 C 3.1555 -1.8218 0 0
M  V30 7 C 1.6155 -1.8218 0 0 CFG=1
M  V30 8 C 1.6155 -0.2818 0 0
M  V30 9 C 4.4892 2.0282 0 0
M  V30 10 O 5.8229 2.7982 0 0
M  V30 11 O 3.1555 2.7982 0 0
M  V30 12 O 0.5266 0.8071 0 0
M  V30 13 C 7.1566 0.4882 0 0
M  V30 14 N 0.5266 -2.9108 0 0
M  V30 15 C -0.961 -2.5122 0 0
M  V30 16 O -1.3595 -1.0247 0 0
M  V30 17 C -2.0499 -3.6011 0 0
M  V30 18 C -3.5374 -3.2026 0 0
M  V30 19 O -1.6513 -5.0887 0 0
M  V30 20 C -4.0893 -1.7649 0 0
M  V30 21 C -5.6271 -1.8455 0 0
M  V30 22 C -6.0257 -3.333 0 0
M  V30 23 O -4.7342 -4.1717 0 0
M  V30 END ATOM
M  V30 BEGIN BOND
M  V30 1 1 1 2
M  V30 2 2 2 3
M  V30 3 1 3 4
M  V30 4 1 4 5
M  V30 5 1 6 5
M  V30 6 1 6 1
M  V30 7 1 6 7
M  V30 8 1 7 8
M  V30 9 1 1 8
M  V30 10 1 9 10
M  V30 11 2 9 11
M  V30 12 1 2 9
M  V30 13 2 8 12
M  V30 14 1 3 13
M  V30 15 2 15 16
M  V30 16 1 15 17
M  V30 17 1 17 18
M  V30 18 1 17 19
M  V30 19 1 14 15
M  V30 20 1 7 14 CFG=3
M  V30 21 1 20 21
M  V30 22 2 21 22
M  V30 23 1 22 23
M  V30 24 2 18 20
M  V30 25 1 18 23
M  V30 END BOND
M  V30 BEGIN COLLECTION
M  V30 MDLV30/STEREL1 ATOMS=(1 7)
M  V30 END COLLECTION
M  V30 END CTAB
M  END
>  <type>
systematic

$$$$
5-Thia-1-azabicyclo[4.2.0]oct-2-ene-2-carboxylic acid, 3-ethenyl-8-oxo-7-[(oxophenylacetyl)amino]-, (6R-trans)-
  Mrv2401 11042400162D          

 25 27  0  0  1  0            999 V2000
    1.6905   -0.1510    0.0000 N   0  0  0  0  0  0  0  0  0  0  0  0
    2.4049    0.2615    0.0000 C   0  0  0  0  0  0  0  0  0  0  0  0
    3.1194   -0.1510    0.0000 C   0  0  0  0  0  0  0  0  0  0  0  0
    3.1194   -0.9760    0.0000 C   0  0  0  0  0  0  0  0  0  0  0  0
    2.4049   -1.3885    0.0000 S   0  0  0  0  0  0  0  0  0  0  0  0
    1.6905   -0.9760    0.0000 C   0  0  2  0  0  0  0  0  0  0  0  0
    0.8655   -0.9760    0.0000 C   0  0  0  0  0  0  0  0  0  0  0  0
    0.8655   -0.1510    0.0000 C   0  0  0  0  0  0  0  0  0  0  0  0
    2.4049    1.0865    0.0000 C   0  0  0  0  0  0  0  0  0  0  0  0
    3.1194    1.4990    0.0000 O   0  0  0  0  0  0  0  0  0  0  0  0
    1.6905    1.4990    0.0000 O   0  0  0  0  0  0  0  0  0  0  0  0
    0.2821   -1.5593    0.0000 N   0  0  0  0  0  0  0  0  0  0  0  0
   -0.5148   -1.3458    0.0000 C   0  0  0  0  0  0  0  0  0  0  0  0
   -0.7283   -0.5489    0.0000 O   0  0  0  0  0  0  0  0  0  0  0  0
   -1.0982   -1.9292    0.0000 C   0  0  0  0  0  0  0  0  0  0  0  0
   -1.8950   -1.7157    0.0000 C   0  0  0  0  0  0  0  0  0  0  0  0
   -2.4784   -2.2990    0.0000 C   0  0  0  0  0  0  0  0  0  0  0  0
   -3.2753   -2.0855    0.0000 C   0  0  0  0  0  0  0  0  0  0  0  0
   -3.4888   -1.2886    0.0000 C   0  0  0  0  0  0  0  0  0  0  0  0
   -2.9055   -0.7052    0.0000 C   0  0  0  0  0  0  0  0  0  0  0  0
   -2.1086   -0.9188    0.0000 C   0  0  0  0  0  0  0  0  0  0  0  0
   -0.8846   -2.7261    0.0000 O   0  0  0  0  0  0  0  0  0  0  0  0
    0.2821    0.4324    0.0000 O   0  0  0  0  0  0  0  0  0  0  0  0
    3.8339    0.2615    0.0000 C   0  0  0  0  0  0  0  0  0  0  0  0
    3.8339    1.0865    0.0000 C   0  0  0  0  0  0  0  0  0  0  0  0
  1  2  1  0  0  0  0
  2  3  2  0  0  0  0
  3  4  1  0  0  0  0
  4  5  1  0  0  0  0
  6  5  1  0  0  0  0
  6  1  1  6  0  0  0
  6  7  1  0  0  0  0
  7  8  1  0  0  0  0
  1  8  1  0  0  0  0
  9 10  1  0  0  0  0
  9 11  2  0  0  0  0
  2  9  1  0  0  0  0
 13 14  2  0  0  0  0
 13 15  1  0  0  0  0
 16 17  2  0  0  0  0
 17 18  1  0  0  0  0
 18 19  2  0  0  0  0
 19 20  1  0  0  0  0
 20 21  2  0  0  0  0
 16 21  1  0  0  0  0
 15 16  1  0  0  0  0
 15 22  2  0  0  0  0
 12 13  1  0  0  0  0
  7 12  1  0  0  0  0
  8 23  2  0  0  0  0
 24 25  2  0  0  0  0
  3 24  1  0  0  0  0
M  END
>  <type>
systematic

$$$$

  Mrv2401 11042400182D          

 28 30  0  0  1  0            999 V2000
    1.6905   -0.1510    0.0000 N   0  0  0  0  0  0  0  0  0  0  0  0
    2.4049    0.2615    0.0000 C   0  0  0  0  0  0  0  0  0  0  0  0
    3.1194   -0.1510    0.0000 C   0  0  0  0  0  0  0  0  0  0  0  0
    3.1194   -0.9760    0.0000 C   0  0  0  0  0  0  0  0  0  0  0  0
    2.4049   -1.3885    0.0000 S   0  0  0  0  0  0  0  0  0  0  0  0
    1.6905   -0.9760    0.0000 C   0  0  2  0  0  0  0  0  0  0  0  0
    0.8655   -0.9760    0.0000 C   0  0  2  0  0  0  0  0  0  0  0  0
    0.8655   -0.1510    0.0000 C   0  0  0  0  0  0  0  0  0  0  0  0
    2.4049    1.0865    0.0000 C   0  0  0  0  0  0  0  0  0  0  0  0
    3.1194    1.4990    0.0000 O   0  0  0  0  0  0  0  0  0  0  0  0
    1.6905    1.4990    0.0000 O   0  0  0  0  0  0  0  0  0  0  0  0
    0.2821   -1.5593    0.0000 N   0  0  0  0  0  0  0  0  0  0  0  0
   -0.5148   -1.3458    0.0000 C   0  0  0  0  0  0  0  0  0  0  0  0
   -0.7283   -0.5489    0.0000 O   0  0  0  0  0  0  0  0  0  0  0  0
   -1.0982   -1.9292    0.0000 C   0  0  2  0  0  0  0  0  0  0  0  0
   -1.8950   -1.7157    0.0000 C   0  0  0  0  0  0  0  0  0  0  0  0
   -2.4784   -2.2990    0.0000 C   0  0  0  0  0  0  0  0  0  0  0  0
   -3.2753   -2.0855    0.0000 C   0  0  0  0  0  0  0  0  0  0  0  0
   -3.4888   -1.2886    0.0000 C   0  0  0  0  0  0  0  0  0  0  0  0
   -2.9055   -0.7052    0.0000 C   0  0  0  0  0  0  0  0  0  0  0  0
   -2.1086   -0.9188    0.0000 C   0  0  0  0  0  0  0  0  0  0  0  0
   -0.8846   -2.7261    0.0000 O   0  0  0  0  0  0  0  0  0  0  0  0
    0.2821    0.4324    0.0000 O   0  0  0  0  0  0  0  0  0  0  0  0
    3.8339    0.2615    0.0000 C   0  0  0  0  0  0  0  0  0  0  0  0
    4.5483   -0.1510    0.0000 C   0  0  0  0  0  0  0  0  0  0  0  0
    4.5483   -0.9760    0.0000 O   0  0  0  0  0  0  0  0  0  0  0  0
    5.2628    0.2615    0.0000 O   0  0  0  0  0  0  0  0  0  0  0  0
    5.2628   -1.3885    0.0000 C   0  0  0  0  0  0  0  0  0  0  0  0
  1  2  1  0  0  0  0
  2  3  2  0  0  0  0
  3  4  1  0  0  0  0
  4  5  1  0  0  0  0
  6  5  1  0  0  0  0
  6  1  1  6  0  0  0
  6  7  1  0  0  0  0
  7  8  1  0  0  0  0
  1  8  1  0  0  0  0
  9 10  1  0  0  0  0
  9 11  2  0  0  0  0
  2  9  1  0  0  0  0
 13 14  2  0  0  0  0
 13 15  1  0  0  0  0
 16 17  2  0  0  0  0
 17 18  1  0  0  0  0
 18 19  2  0  0  0  0
 19 20  1  0  0  0  0
 20 21  2  0  0  0  0
 16 21  1  0  0  0  0
 15 16  1  0  0  0  0
 15 22  1  1  0  0  0
 12 13  1  0  0  0  0
  7 12  1  1  0  0  0
  8 23  2  0  0  0  0
  3 24  1  0  0  0  0
 24 25  1  0  0  0  0
 25 26  1  0  0  0  0
 25 27  2  0  0  0  0
 26 28  1  0  0  0  0
M  END
>  <type>
systematic

$$$$

  Mrv2401 11042400312D          

 32 35  0  0  0  0            999 V2000
   -7.0250    2.0179    0.0000 C   0  0  0  0  0  0  0  0  0  0  0  0
   -7.7395    1.6054    0.0000 C   0  0  0  0  0  0  0  0  0  0  0  0
   -7.7395    0.7804    0.0000 C   0  0  0  0  0  0  0  0  0  0  0  0
   -7.0250    0.3679    0.0000 C   0  0  0  0  0  0  0  0  0  0  0  0
   -6.3106    0.7804    0.0000 C   0  0  0  0  0  0  0  0  0  0  0  0
   -6.3106    1.6054    0.0000 N   0  0  0  0  0  0  0  0  0  0  0  0
   -8.4540    2.0179    0.0000 Cl  0  0  0  0  0  0  0  0  0  0  0  0
   -7.0250   -0.4571    0.0000 C   0  0  0  0  0  0  0  0  0  0  0  0
   -6.3106   -0.8696    0.0000 O   0  0  0  0  0  0  0  0  0  0  0  0
   -7.7395   -0.8696    0.0000 O   0  0  0  0  0  0  0  0  0  0  0  0
   -5.5961    0.3679    0.0000 N   0  0  0  0  0  0  0  0  0  0  0  0
   -4.8816    0.7804    0.0000 C   0  0  0  0  0  0  0  0  0  0  0  0
   -4.1672    0.3679    0.0000 C   0  0  0  0  0  0  0  0  0  0  0  0
   -3.4527    0.7804    0.0000 C   0  0  0  0  0  0  0  0  0  0  0  0
   -2.7382    0.3679    0.0000 N   0  0  0  0  0  0  0  0  0  0  0  0
   -4.1672   -0.4571    0.0000 O   0  0  0  0  0  0  0  0  0  0  0  0
   -2.0932   -0.1464    0.0000 C   0  0  0  0  0  0  0  0  0  0  0  0
   -0.9309    0.7804    0.0000 C   0  0  1  0  0  0  0  0  0  0  0  0
   -1.2889    1.5237    0.0000 C   0  0  0  0  0  0  0  0  0  0  0  0
   -2.0932    1.7073    0.0000 C   0  0  1  0  0  0  0  0  0  0  0  0
   -2.3249    0.7804    0.0000 C   0  0  0  0  0  0  0  0  0  0  0  0
   -1.2889    0.0371    0.0000 C   0  0  0  0  0  0  0  0  0  0  0  0
   -2.7382    1.1929    0.0000 C   0  0  0  0  0  0  0  0  0  0  0  0
   -2.2768    2.5116    0.0000 C   0  0  0  0  0  0  0  0  0  0  0  0
   -0.1059    0.7804    0.0000 O   0  0  0  0  0  0  0  0  0  0  0  0
    0.3066    0.0660    0.0000 C   0  0  0  0  0  0  0  0  0  0  0  0
   -0.1059   -0.6485    0.0000 C   0  0  0  0  0  0  0  0  0  0  0  0
    0.3066   -1.3630    0.0000 C   0  0  0  0  0  0  0  0  0  0  0  0
    1.1316   -1.3630    0.0000 C   0  0  0  0  0  0  0  0  0  0  0  0
    1.5441   -0.6485    0.0000 C   0  0  0  0  0  0  0  0  0  0  0  0
    1.1316    0.0660    0.0000 C   0  0  0  0  0  0  0  0  0  0  0  0
    1.5441   -2.0775    0.0000 F   0  0  0  0  0  0  0  0  0  0  0  0
  1  2  1  0  0  0  0
  2  3  2  0  0  0  0
  3  4  1  0  0  0  0
  4  5  2  0  0  0  0
  5  6  1  0  0  0  0
  1  6  2  0  0  0  0
  2  7  1  0  0  0  0
  4  8  1  0  0  0  0
  8  9  2  0  0  0  0
  8 10  1  0  0  0  0
  5 11  1  0  0  0  0
 11 12  1  0  0  0  0
 12 13  1  0  0  0  0
 13 14  1  0  0  0  0
 14 15  1  0  0  0  0
 13 16  2  0  0  0  0
 18 19  1  0  0  0  0
 20 21  1  0  0  0  0
 21 17  1  0  0  0  0
 17 22  1  0  0  0  0
 22 18  1  0  0  0  0
 20 23  1  0  0  0  0
 20 19  1  0  0  0  0
 17 15  1  0  0  0  0
 23 15  1  0  0  0  0
 20 24  1  6  0  0  0
 18 25  1  6  0  0  0
 25 26  1  0  0  0  0
 27 28  2  0  0  0  0
 28 29  1  0  0  0  0
 29 30  2  0  0  0  0
 30 31  1  0  0  0  0
 26 27  1  0  0  0  0
 26 31  2  0  0  0  0
 29 32  1  0  0  0  0
M  END
$$$$

  Mrv2401 11042400392D          

 33 37  0  0  0  0            999 V2000
   -2.7382    0.3679    0.0000 C   0  0  0  0  0  0  0  0  0  0  0  0
   -2.0932   -0.1464    0.0000 C   0  0  2  0  0  0  0  0  0  0  0  0
   -0.9309    0.7804    0.0000 C   0  0  0  0  0  0  0  0  0  0  0  0
   -1.2889    1.5237    0.0000 C   0  0  0  0  0  0  0  0  0  0  0  0
   -2.0932    1.7073    0.0000 C   0  0  2  0  0  0  0  0  0  0  0  0
   -2.3249    0.7804    0.0000 C   0  0  0  0  0  0  0  0  0  0  0  0
   -1.2889    0.0371    0.0000 C   0  0  0  0  0  0  0  0  0  0  0  0
   -2.7382    1.1929    0.0000 C   0  0  0  0  0  0  0  0  0  0  0  0
   -2.2768    2.5116    0.0000 C   0  0  0  0  0  0  0  0  0  0  0  0
   -2.3364   -0.9348    0.0000 C   0  0  0  0  0  0  0  0  0  0  0  0
   -1.7753   -1.5396    0.0000 C   0  0  0  0  0  0  0  0  0  0  0  0
   -0.9709   -1.3560    0.0000 C   0  0  0  0  0  0  0  0  0  0  0  0
   -0.7278   -0.5676    0.0000 C   0  0  1  0  0  0  0  0  0  0  0  0
   -0.4098   -1.9608    0.0000 C   0  0  1  0  0  0  0  0  0  0  0  0
    0.3945   -1.7772    0.0000 C   0  0  0  0  0  0  0  0  0  0  0  0
    0.6377   -0.9889    0.0000 C   0  0  0  0  0  0  0  0  0  0  0  0
    0.0766   -0.3841    0.0000 C   0  0  0  0  0  0  0  0  0  0  0  0
   -0.7745    2.1688    0.0000 N   0  0  0  0  0  0  0  0  0  0  0  0
   -1.0759    2.9367    0.0000 N   0  0  0  0  0  0  0  0  0  0  0  0
   -0.5615    3.5817    0.0000 C   0  0  0  0  0  0  0  0  0  0  0  0
   -0.8629    4.3497    0.0000 C   0  0  0  0  0  0  0  0  0  0  0  0
    0.2542    3.4588    0.0000 O   0  0  0  0  0  0  0  0  0  0  0  0
   -0.3486    4.9947    0.0000 C   0  0  0  0  0  0  0  0  0  0  0  0
   -0.6500    5.7627    0.0000 N   0  0  0  0  0  0  0  0  0  0  0  0
   -1.4658    5.8857    0.0000 C   0  0  0  0  0  0  0  0  0  0  0  0
   -1.9801    5.2407    0.0000 C   0  0  0  0  0  0  0  0  0  0  0  0
   -1.6787    4.4727    0.0000 C   0  0  0  0  0  0  0  0  0  0  0  0
   -0.4846    0.2207    0.0000 C   0  0  0  0  0  0  0  0  0  0  0  0
   -0.6530   -2.7491    0.0000 C   0  0  0  0  0  0  0  0  0  0  0  0
    0.1513   -2.5656    0.0000 C   0  0  0  0  0  0  0  0  0  0  0  0
   -1.2141   -2.1443    0.0000 C   0  0  0  0  0  0  0  0  0  0  0  0
   -0.0919   -3.3539    0.0000 O   0  0  0  0  0  0  0  0  0  0  0  0
    0.9556   -2.3820    0.0000 O   0  0  0  0  0  0  0  0  0  0  0  0
  3  4  1  0  0  0  0
  5  6  1  1  0  0  0
  2  6  1  1  0  0  0
  2  7  1  0  0  0  0
  7  3  1  0  0  0  0
  5  8  1  0  0  0  0
  5  4  1  0  0  0  0
  2  1  1  0  0  0  0
  8  1  1  0  0  0  0
  5  9  1  0  0  0  0
 10 11  1  0  0  0  0
 11 12  1  0  0  0  0
 12 13  1  0  0  0  0
  2 10  1  0  0  0  0
  7 13  1  0  0  0  0
 14 15  1  0  0  0  0
 15 16  1  0  0  0  0
 16 17  1  0  0  0  0
 12 14  1  0  0  0  0
 13 17  1  0  0  0  0
  4 18  2  0  0  0  0
 18 19  1  0  0  0  0
 19 20  1  0  0  0  0
 20 21  1  0  0  0  0
 20 22  2  0  0  0  0
 23 24  2  0  0  0  0
 24 25  1  0  0  0  0
 25 26  2  0  0  0  0
 26 27  1  0  0  0  0
 21 23  1  0  0  0  0
 21 27  2  0  0  0  0
 13 28  1  1  0  0  0
 14 29  1  1  0  0  0
 14 30  1  6  0  0  0
 12 31  1  0  0  0  0
 30 32  1  0  0  0  0
 30 33  2  0  0  0  0
M  END
$$$$

  Mrv2401 11042400442D          

 34 38  0  0  0  0            999 V2000
   -2.7382    0.3679    0.0000 C   0  0  0  0  0  0  0  0  0  0  0  0
   -2.0932   -0.1464    0.0000 C   0  0  2  0  0  0  0  0  0  0  0  0
   -0.9309    0.7804    0.0000 C   0  0  0  0  0  0  0  0  0  0  0  0
   -1.2889    1.5237    0.0000 C   0  0  0  0  0  0  0  0  0  0  0  0
   -2.0932    1.7073    0.0000 C   0  0  2  0  0  0  0  0  0  0  0  0
   -2.3249    0.7804    0.0000 C   0  0  0  0  0  0  0  0  0  0  0  0
   -1.2889    0.0371    0.0000 C   0  0  2  0  0  0  0  0  0  0  0  0
   -2.7382    1.1929    0.0000 C   0  0  0  0  0  0  0  0  0  0  0  0
   -2.2768    2.5116    0.0000 C   0  0  0  0  0  0  0  0  0  0  0  0
   -2.3364   -0.9348    0.0000 C   0  0  0  0  0  0  0  0  0  0  0  0
   -1.7753   -1.5396    0.0000 C   0  0  0  0  0  0  0  0  0  0  0  0
   -0.9709   -1.3560    0.0000 C   0  0  1  0  0  0  0  0  0  0  0  0
   -0.7278   -0.5676    0.0000 C   0  0  1  0  0  0  0  0  0  0  0  0
   -0.4098   -1.9608    0.0000 C   0  0  1  0  0  0  0  0  0  0  0  0
    0.3945   -1.7772    0.0000 C   0  0  0  0  0  0  0  0  0  0  0  0
    0.6377   -0.9889    0.0000 C   0  0  0  0  0  0  0  0  0  0  0  0
    0.0766   -0.3841    0.0000 C   0  0  0  0  0  0  0  0  0  0  0  0
   -0.7745    2.1688    0.0000 N   0  0  0  0  0  0  0  0  0  0  0  0
   -1.0759    2.9367    0.0000 N   0  0  0  0  0  0  0  0  0  0  0  0
   -0.5615    3.5817    0.0000 C   0  0  0  0  0  0  0  0  0  0  0  0
   -0.8629    4.3497    0.0000 C   0  0  0  0  0  0  0  0  0  0  0  0
    0.2542    3.4588    0.0000 O   0  0  0  0  0  0  0  0  0  0  0  0
   -0.3486    4.9947    0.0000 C   0  0  0  0  0  0  0  0  0  0  0  0
   -0.6500    5.7627    0.0000 C   0  0  0  0  0  0  0  0  0  0  0  0
   -1.4658    5.8857    0.0000 N   0  0  0  0  0  0  0  0  0  0  0  0
   -1.9801    5.2407    0.0000 C   0  0  0  0  0  0  0  0  0  0  0  0
   -1.6787    4.4727    0.0000 C   0  0  0  0  0  0  0  0  0  0  0  0
   -0.4846    0.2207    0.0000 C   0  0  0  0  0  0  0  0  0  0  0  0
   -0.6530   -2.7491    0.0000 C   0  0  0  0  0  0  0  0  0  0  0  0
    0.1513   -2.5656    0.0000 C   0  0  0  0  0  0  0  0  0  0  0  0
   -1.2141   -2.1443    0.0000 C   0  0  0  0  0  0  0  0  0  0  0  0
   -0.0919   -3.3539    0.0000 O   0  0  0  0  0  0  0  0  0  0  0  0
    0.9556   -2.3820    0.0000 O   0  0  0  0  0  0  0  0  0  0  0  0
   -1.8033    0.6822    0.0000 H   0  0  0  0  0  0  0  0  0  0  0  0
  3  4  1  0  0  0  0
  5  6  1  1  0  0  0
  2  6  1  1  0  0  0
  2  7  1  0  0  0  0
  7  3  1  0  0  0  0
  5  8  1  0  0  0  0
  5  4  1  0  0  0  0
  2  1  1  0  0  0  0
  8  1  1  0  0  0  0
  5  9  1  0  0  0  0
 10 11  1  0  0  0  0
 11 12  1  0  0  0  0
 12 13  1  0  0  0  0
  2 10  1  0  0  0  0
  7 13  1  0  0  0  0
 14 15  1  0  0  0  0
 15 16  1  0  0  0  0
 16 17  1  0  0  0  0
 12 14  1  0  0  0  0
 13 17  1  0  0  0  0
  4 18  2  0  0  0  0
 18 19  1  0  0  0  0
 19 20  1  0  0  0  0
 20 21  1  0  0  0  0
 20 22  2  0  0  0  0
 23 24  2  0  0  0  0
 24 25  1  0  0  0  0
 25 26  2  0  0  0  0
 26 27  1  0  0  0  0
 21 23  1  0  0  0  0
 21 27  2  0  0  0  0
 13 28  1  1  0  0  0
 14 29  1  1  0  0  0
 14 30  1  6  0  0  0
 12 31  1  6  0  0  0
 30 32  1  0  0  0  0
 30 33  2  0  0  0  0
  7 34  1  1  0  0  0
M  END
$$$$

  Mrv2401 11042400442D          

 34 38  0  0  0  0            999 V2000
   -2.7382    0.3679    0.0000 C   0  0  0  0  0  0  0  0  0  0  0  0
   -2.0932   -0.1464    0.0000 C   0  0  2  0  0  0  0  0  0  0  0  0
   -0.9309    0.7804    0.0000 C   0  0  0  0  0  0  0  0  0  0  0  0
   -1.2889    1.5237    0.0000 C   0  0  0  0  0  0  0  0  0  0  0  0
   -2.0932    1.7073    0.0000 C   0  0  2  0  0  0  0  0  0  0  0  0
   -2.3249    0.7804    0.0000 C   0  0  0  0  0  0  0  0  0  0  0  0
   -1.2889    0.0371    0.0000 C   0  0  2  0  0  0  0  0  0  0  0  0
   -2.7382    1.1929    0.0000 C   0  0  0  0  0  0  0  0  0  0  0  0
   -2.2768    2.5116    0.0000 C   0  0  0  0  0  0  0  0  0  0  0  0
   -2.3364   -0.9348    0.0000 C   0  0  0  0  0  0  0  0  0  0  0  0
   -1.7753   -1.5396    0.0000 C   0  0  0  0  0  0  0  0  0  0  0  0
   -0.9709   -1.3560    0.0000 C   0  0  1  0  0  0  0  0  0  0  0  0
   -0.7278   -0.5676    0.0000 C   0  0  1  0  0  0  0  0  0  0  0  0
   -0.4098   -1.9608    0.0000 C   0  0  1  0  0  0  0  0  0  0  0  0
    0.3945   -1.7772    0.0000 C   0  0  0  0  0  0  0  0  0  0  0  0
    0.6377   -0.9889    0.0000 C   0  0  0  0  0  0  0  0  0  0  0  0
    0.0766   -0.3841    0.0000 C   0  0  0  0  0  0  0  0  0  0  0  0
   -0.7745    2.1688    0.0000 N   0  0  0  0  0  0  0  0  0  0  0  0
   -1.0759    2.9367    0.0000 N   0  0  0  0  0  0  0  0  0  0  0  0
   -0.5615    3.5817    0.0000 C   0  0  0  0  0  0  0  0  0  0  0  0
   -0.8629    4.3497    0.0000 C   0  0  0  0  0  0  0  0  0  0  0  0
    0.2542    3.4588    0.0000 O   0  0  0  0  0  0  0  0  0  0  0  0
   -0.3486    4.9947    0.0000 N   0  0  0  0  0  0  0  0  0  0  0  0
   -0.6500    5.7627    0.0000 C   0  0  0  0  0  0  0  0  0  0  0  0
   -1.4658    5.8857    0.0000 C   0  0  0  0  0  0  0  0  0  0  0  0
   -1.9801    5.2407    0.0000 C   0  0  0  0  0  0  0  0  0  0  0  0
   -1.6787    4.4727    0.0000 C   0  0  0  0  0  0  0  0  0  0  0  0
   -0.4846    0.2207    0.0000 C   0  0  0  0  0  0  0  0  0  0  0  0
   -0.6530   -2.7491    0.0000 C   0  0  0  0  0  0  0  0  0  0  0  0
    0.1513   -2.5656    0.0000 C   0  0  0  0  0  0  0  0  0  0  0  0
   -1.2141   -2.1443    0.0000 C   0  0  0  0  0  0  0  0  0  0  0  0
   -0.0919   -3.3539    0.0000 O   0  0  0  0  0  0  0  0  0  0  0  0
    0.9556   -2.3820    0.0000 O   0  0  0  0  0  0  0  0  0  0  0  0
   -1.8033    0.6822    0.0000 H   0  0  0  0  0  0  0  0  0  0  0  0
  3  4  1  0  0  0  0
  5  6  1  1  0  0  0
  2  6  1  1  0  0  0
  2  7  1  0  0  0  0
  7  3  1  0  0  0  0
  5  8  1  0  0  0  0
  5  4  1  0  0  0  0
  2  1  1  0  0  0  0
  8  1  1  0  0  0  0
  5  9  1  0  0  0  0
 10 11  1  0  0  0  0
 11 12  1  0  0  0  0
 12 13  1  0  0  0  0
  2 10  1  0  0  0  0
  7 13  1  0  0  0  0
 14 15  1  0  0  0  0
 15 16  1  0  0  0  0
 16 17  1  0  0  0  0
 12 14  1  0  0  0  0
 13 17  1  0  0  0  0
  4 18  2  0  0  0  0
 18 19  1  0  0  0  0
 19 20  1  0  0  0  0
 20 21  1  0  0  0  0
 20 22  2  0  0  0  0
 23 24  2  0  0  0  0
 24 25  1  0  0  0  0
 25 26  2  0  0  0  0
 26 27  1  0  0  0  0
 21 23  1  0  0  0  0
 21 27  2  0  0  0  0
 13 28  1  1  0  0  0
 14 29  1  1  0  0  0
 14 30  1  6  0  0  0
 12 31  1  6  0  0  0
 30 32  1  0  0  0  0
 30 33  2  0  0  0  0
  7 34  1  1  0  0  0
M  END
$$$$

  Mrv2401 11042400532D          

 28 31  0  0  0  0            999 V2000
   -7.4669    1.2006    0.0000 C   0  0  0  0  0  0  0  0  0  0  0  0
   -8.1813    0.7881    0.0000 C   0  0  0  0  0  0  0  0  0  0  0  0
   -8.1813   -0.0370    0.0000 C   0  0  0  0  0  0  0  0  0  0  0  0
   -7.4669   -0.4495    0.0000 C   0  0  0  0  0  0  0  0  0  0  0  0
   -6.7524   -0.0370    0.0000 C   0  0  0  0  0  0  0  0  0  0  0  0
   -6.7524    0.7881    0.0000 C   0  0  0  0  0  0  0  0  0  0  0  0
   -6.0379   -0.4495    0.0000 C   0  0  1  0  0  0  0  0  0  0  0  0
   -5.3235   -0.0369    0.0000 C   0  0  0  0  0  0  0  0  0  0  0  0
   -4.6090   -0.4494    0.0000 N   0  0  0  0  0  0  0  0  0  0  0  0
   -6.0379   -1.2745    0.0000 O   0  0  0  0  0  0  0  0  0  0  0  0
   -5.3235    0.7881    0.0000 O   0  0  0  0  0  0  0  0  0  0  0  0
   -3.8945   -0.0369    0.0000 C   0  0  2  0  0  0  0  0  0  0  0  0
   -3.1408   -0.3725    0.0000 C   0  0  0  0  0  0  0  0  0  0  0  0
   -2.5888    0.2406    0.0000 O   0  0  0  0  0  0  0  0  0  0  0  0
   -3.0013    0.9551    0.0000 C   0  0  2  0  0  0  0  0  0  0  0  0
   -3.8083    0.7835    0.0000 C   0  0  2  0  0  0  0  0  0  0  0  0
   -4.4214    1.3356    0.0000 O   0  0  0  0  0  0  0  0  0  0  0  0
   -2.9693   -1.1794    0.0000 C   0  0  0  0  0  0  0  0  0  0  0  0
   -2.6658    1.7087    0.0000 N   0  0  0  0  0  0  0  0  0  0  0  0
   -1.8588    1.8803    0.0000 C   0  0  0  0  0  0  0  0  0  0  0  0
   -1.7726    2.7007    0.0000 C   0  0  0  0  0  0  0  0  0  0  0  0
   -2.5263    3.0363    0.0000 N   0  0  0  0  0  0  0  0  0  0  0  0
   -3.0783    2.4232    0.0000 C   0  0  0  0  0  0  0  0  0  0  0  0
   -1.1914    1.3954    0.0000 N   0  0  0  0  0  0  0  0  0  0  0  0
   -0.4377    1.7309    0.0000 C   0  0  0  0  0  0  0  0  0  0  0  0
   -0.3515    2.5514    0.0000 N   0  0  0  0  0  0  0  0  0  0  0  0
   -1.0189    3.0363    0.0000 C   0  0  0  0  0  0  0  0  0  0  0  0
   -0.9327    3.8568    0.0000 N   0  0  0  0  0  0  0  0  0  0  0  0
  1  2  2  0  0  0  0
  2  3  1  0  0  0  0
  3  4  2  0  0  0  0
  4  5  1  0  0  0  0
  5  6  2  0  0  0  0
  1  6  1  0  0  0  0
  5  7  1  0  0  0  0
  7  8  1  0  0  0  0
  8  9  1  0  0  0  0
  7 10  1  1  0  0  0
  8 11  2  0  0  0  0
 12  9  1  1  0  0  0
 13 14  1  0  0  0  0
 14 15  1  0  0  0  0
 15 16  1  0  0  0  0
 12 13  1  0  0  0  0
 12 16  1  0  0  0  0
 16 17  1  1  0  0  0
 13 18  1  0  0  0  0
 15 19  1  6  0  0  0
 21 22  1  0  0  0  0
 22 23  2  0  0  0  0
 19 20  1  0  0  0  0
 19 23  1  0  0  0  0
 24 25  1  0  0  0  0
 25 26  2  0  0  0  0
 26 27  1  0  0  0  0
 20 24  2  0  0  0  0
 21 27  2  0  0  0  0
 21 20  1  0  0  0  0
 27 28  1  0  0  0  0
M  END
$$$$

